data_DK3
_audit_creation_date               2019-04-10
_audit_creation_method
;
Olex2 1.2
(compiled 2018.05.29 svn.r3508 for OlexSys, GUI svn.r5506)
;
_audit_contact_author_address      ?
_audit_contact_author_email        ?
_audit_contact_author_name         ''
_audit_contact_author_phone        ?
_publ_contact_author_id_orcid      ?
_publ_section_references
;
Bourhis, L.J., Dolomanov, O.V., Gildea, R.J., Howard, J.A.K., Puschmann, H.
 (2015). Acta Cryst. A71, 59-75.

Dolomanov, O.V., Bourhis, L.J., Gildea, R.J, Howard, J.A.K. & Puschmann, H.
 (2009), J. Appl. Cryst. 42, 339-341.

Sheldrick, G.M. (2015). Acta Cryst. A71, 3-8.
;
_chemical_formula_moiety           'C11 H8 O5'
_chemical_formula_sum              'C11 H8 O5'
_chemical_formula_weight           220.18
_chemical_oxdiff_usercomment       '8 OCH3 CAAH DK60'
loop_
  _atom_type_symbol
  _atom_type_scat_dispersion_real
  _atom_type_scat_dispersion_imag
  _atom_type_scat_Cromer_Mann_a1
  _atom_type_scat_Cromer_Mann_a2
  _atom_type_scat_Cromer_Mann_a3
  _atom_type_scat_Cromer_Mann_a4
  _atom_type_scat_Cromer_Mann_b1
  _atom_type_scat_Cromer_Mann_b2
  _atom_type_scat_Cromer_Mann_b3
  _atom_type_scat_Cromer_Mann_b4
  _atom_type_scat_Cromer_Mann_c
  _atom_type_scat_source
  _atom_type_scat_dispersion_source
 H 0.00000 0.00000 0.49300 0.32291 0.14019 0.04081 10.51090 26.12570 3.14236
 57.79970 0.0030380000826
 'International Tables Volume C Table 6.1.1.4 (pp. 500-502)'
 'Henke, Gullikson and Davis, At. Data and Nucl. Data Tables, 1993, 54, 2'
 C 0.01920 0.00962 2.31000 1.02000 1.58860 0.86500 20.84390 10.20750 0.56870
 51.65120 0.215599998832
 'International Tables Volume C Table 6.1.1.4 (pp. 500-502)'
 'Henke, Gullikson and Davis, At. Data and Nucl. Data Tables, 1993, 54, 2'
 O 0.05239 0.03377 3.04850 2.28680 1.54630 0.86700 13.27710 5.70110 0.32390
 32.90890 0.250800013542
 'International Tables Volume C Table 6.1.1.4 (pp. 500-502)'
 'Henke, Gullikson and Davis, At. Data and Nucl. Data Tables, 1993, 54, 2'

_space_group_crystal_system        'monoclinic'
_space_group_IT_number             15
_space_group_name_H-M_alt          'C 1 2/c 1'
_space_group_name_Hall             '-C 2yc'
loop_
  _space_group_symop_id
  _space_group_symop_operation_xyz
 1 x,y,z
 2 -x,y,-z+1/2
 3 -x,-y,-z
 4 x,-y,z-1/2
 5 x+1/2,y+1/2,z
 6 -x+1/2,y+1/2,-z+1/2
 7 -x+1/2,-y+1/2,-z
 8 x+1/2,-y+1/2,z-1/2

_symmetry_Int_Tables_number        15
_cell_length_a                     12.8983(16)
_cell_length_b                     7.0522(7)
_cell_length_c                     21.046(2)
_cell_angle_alpha                  90
_cell_angle_beta                   96.340(10)
_cell_angle_gamma                  90
_cell_volume                       1902.6(4)
_cell_formula_units_Z              8
_cell_measurement_reflns_used      2339
_cell_measurement_theta_max        68.0760
_cell_measurement_theta_min        4.2090
_exptl_absorpt_coefficient_mu      1.057
_exptl_absorpt_correction_T_max    1.00000
_exptl_absorpt_correction_T_min    0.90137
_exptl_absorpt_correction_type     multi-scan
_exptl_absorpt_process_details
;
CrysAlisPro 1.171.40.45a (Rigaku Oxford Diffraction, 2019)
Empirical absorption correction using spherical harmonics,
 implemented in SCALE3 ABSPACK scaling algorithm.
;
_exptl_crystal_density_diffrn      1.5372
_exptl_crystal_F_000               915.6909
_diffrn_reflns_av_R_equivalents    0.0610
_diffrn_reflns_av_unetI/netI       0.0534
_diffrn_reflns_limit_h_max         15
_diffrn_reflns_limit_h_min         -15
_diffrn_reflns_limit_k_max         8
_diffrn_reflns_limit_k_min         -8
_diffrn_reflns_limit_l_max         25
_diffrn_reflns_limit_l_min         -25
_diffrn_reflns_number              9761
_diffrn_reflns_theta_full          68.3417
_diffrn_reflns_theta_max           68.34
_diffrn_reflns_theta_min           4.23
_diffrn_detector                   'CCD plate'
_diffrn_detector_area_resol_mean   5.8140
_diffrn_measured_fraction_theta_full  0.9937
_diffrn_measured_fraction_theta_max  0.9937
_diffrn_measurement_details
;
List of Runs (angles in degrees, time in seconds):

  # Type    Start    End  Width  t~exp~   \w     \q     \k     \f   Frames
--------------------------------------------------------------------------
  1  \w    -68.00 -24.00   0.50    5.00    --    0.00  50.00-150.00   88
  2  \w     40.00  89.00   0.50    5.00    --    0.00  50.00-150.00   98
  3  \w    -42.00  94.00   0.50   15.00    --    5.00  40.00 150.00  272
  4  \w   -178.00-110.00   0.50   15.00    --  -90.00  60.00 -98.25  136
  5  \w    -79.00 -53.00   0.50   15.00    --  -90.00  58.00 -37.30   52
  6  \w   -174.00-149.00   0.50   15.00    --  -90.00  10.00 150.00   50
  7  \w   -179.00-122.00   0.50   15.00    --  -90.00  58.00 -37.30  114
  8  \w    -86.00 -16.00   0.50   15.00    --  -90.00  56.00 112.29  140
  9  \w    -94.00  -1.00   0.50   15.00    --  -90.00  56.00-136.13  186
 10  \w   -167.00-126.00   0.50   15.00    --  -90.00  60.00-174.89   82
 11  \w    -26.00  -1.00   0.50   15.00    --  -90.00  60.00-174.89   50
 12  \w   -178.00-146.00   0.50   15.00    --  -90.00  30.00  60.00   64
 13  \w   -137.00-109.00   0.50   15.00    --  -90.00  30.00  60.00   56
 14  \w   -179.00 -82.00   0.50   15.00    --  -90.00  60.00 151.33  194
 15  \w   -167.00  -1.00   0.50   15.00    --  -90.00  30.00 -30.00  332
 16  \w    -28.00  -3.00   0.50   15.00    --  -90.00  40.00   0.00   50
 17  \w   -131.00-105.00   0.50   15.00    --  -90.00  50.00 150.00   52
 18  \w    -58.00  -1.00   0.50   15.00    --  -90.00  60.00 151.33  114
 19  \w   -176.00-106.00   0.50   15.00    --  -90.00  56.00 112.29  140
 20  \w   -147.00-121.00   0.50   15.00    --  -90.00  40.00 -90.00   52
 21  \w    -46.00  -9.00   0.50   15.00    --  -90.00  40.00 -90.00   74
 22  \w   -178.00-151.00   0.50   15.00    --  -90.00  60.00  97.77   54
 23  \w   -117.00 -92.00   0.50   15.00    --  -90.00  60.00  97.77   50
 24  \w   -120.00 -81.00   0.50   15.00    --  -90.00  55.00 -31.17   78
 25  \w    -56.00 -30.00   0.50   15.00    --  -90.00  55.00 -31.17   52
 26  \w   -169.00-106.00   0.50   15.00    --  -90.00  30.00-120.00  126
 27  \w    -81.00  -6.00   0.50   15.00    --  -90.00  30.00-120.00  150
 28  \w   -103.00 -77.00   0.50   15.00    --  -90.00  20.00 -60.00   52
 29  \w    -74.00 -49.00   0.50   15.00    --  -90.00  20.00 -60.00   50
 30  \w   -173.00-147.00   0.50   15.00    --  -90.00  40.00   0.00   52
 31  \w   -102.00 -77.00   0.50   15.00    --  -90.00  60.00 -98.25   50
 32  \w   -157.00-131.00   0.50   15.00    --  -90.00  59.00-156.19   52
 33  \w    -62.00 -22.00   0.50   15.00    --  -90.00  59.00-156.19   80
 34  \w   -153.00-128.00   0.50   15.00    --  -90.00  40.00  30.00   50
 35  \w    -46.00 -21.00   0.50   15.00    --  -90.00  60.00  14.90   50
 36  \w   -101.00 -76.00   0.50   15.00    --  -90.00  55.00 -69.58   50
 37  \w   -168.00 -93.00   0.50   15.00    --  -90.00  60.00  14.90  150
;
_diffrn_measurement_device         'four-circle diffractometer'
_diffrn_measurement_device_type    'XtaLAB AFC11 (RCD3): quarter-chi single'
_diffrn_measurement_method         '\w scans'
_diffrn_orient_matrix_type        
 'CrysAlisPro convention (1999,Acta A55,543-557)'
_diffrn_orient_matrix_UB_11        -0.1012157000
_diffrn_orient_matrix_UB_12        -0.0990245000
_diffrn_orient_matrix_UB_13        0.0145381000
_diffrn_orient_matrix_UB_21        -0.0225631000
_diffrn_orient_matrix_UB_22        -0.0575054000
_diffrn_orient_matrix_UB_23        -0.0708012000
_diffrn_orient_matrix_UB_31        0.0607673000
_diffrn_orient_matrix_UB_32        -0.1861072000
_diffrn_orient_matrix_UB_33        0.0140852000
_diffrn_radiation_monochromator    mirror
_diffrn_radiation_probe            x-ray
_diffrn_radiation_type             'Cu K\a'
_diffrn_radiation_wavelength       1.54184
_diffrn_source                     'Rotating-anode X-ray tube'
_diffrn_source_type                'Rigaku (Cu) X-ray Source'
_reflns_Friedel_coverage           0.0
_reflns_limit_h_max                15
_reflns_limit_h_min                -15
_reflns_limit_k_max                8
_reflns_limit_k_min                0
_reflns_limit_l_max                25
_reflns_limit_l_min                0
_reflns_number_gt                  1034
_reflns_number_total               1732
_reflns_odcompleteness_completeness  97.92
_reflns_odcompleteness_iscentric   1
_reflns_odcompleteness_theta       69.01
_reflns_threshold_expression       I>=2u(I)
_computing_cell_refinement         'CrysAlisPro 1.171.40.45a (Rigaku OD, 2019)'
_computing_data_collection         'CrysAlisPro 1.171.40.45a (Rigaku OD, 2019)'
_computing_data_reduction          'CrysAlisPro 1.171.40.45a (Rigaku OD, 2019)'
_computing_molecular_graphics      'Olex2 (Dolomanov et al., 2009)'
_computing_publication_material    'Olex2 (Dolomanov et al., 2009)'
_computing_structure_refinement    'olex2.refine (Bourhis et al., 2015)'
_computing_structure_solution      'ShelXT (Sheldrick, 2015)'
_refine_diff_density_max           0.6888
_refine_diff_density_min           -0.6998
_refine_diff_density_rms           0.2332
_refine_ls_d_res_high              0.8295
_refine_ls_d_res_low               10.4584
_refine_ls_extinction_expression   Fc^*^=kFc[1+0.001xFc^2^\l^3^/sin(2\q)]^-1/4^
_refine_ls_goodness_of_fit_ref     1.0280
_refine_ls_hydrogen_treatment      constr
_refine_ls_matrix_type             full
_refine_ls_number_constraints      14
_refine_ls_number_parameters       148
_refine_ls_number_reflns           1732
_refine_ls_number_restraints       0
_refine_ls_R_factor_all            0.0902
_refine_ls_R_factor_gt             0.0468
_refine_ls_restrained_S_all        1.0280
_refine_ls_shift/su_max            0.2000
_refine_ls_shift/su_mean           0.0014
_refine_ls_structure_factor_coef   Fsqd
_refine_ls_weighting_details      
 'w=1/[\s^2^(Fo^2^)+(0.0543P)^2^] where P=(Fo^2^+2Fc^2^)/3'
_refine_ls_weighting_scheme        calc
_refine_ls_wR_factor_gt            0.1035
_refine_ls_wR_factor_ref           0.1112
_olex2_refinement_description
;
1. Fixed Uiso
 At 1.2 times of:
  All C(H) groups
 At 1.5 times of:
  All C(H,H,H) groups, All O(H) groups
2.a Aromatic/amide H refined with riding coordinates:
 C00C(H00C), C00F(H00F), C00E(H00E), C00B(H00B)
2.b Idealised Me refined as rotating group:
 C00G(H00a,H00d,H00g)
2.c Idealised tetrahedral OH refined as rotating group:
 O004(H004)
;
_atom_sites_solution_primary       dual
loop_
  _atom_site_label
  _atom_site_type_symbol
  _atom_site_fract_x
  _atom_site_fract_y
  _atom_site_fract_z
  _atom_site_U_iso_or_equiv
  _atom_site_adp_type
  _atom_site_occupancy
  _atom_site_refinement_flags_posn
 O001 O 0.37946(10) 0.19193(18) 0.48921(6) 0.0423(4) Uani 1.000000 .
 O002 O 0.37044(12) 0.1708(2) 0.36450(6) 0.0521(4) Uani 1.000000 .
 O003 O 0.39308(12) 0.0318(2) 0.57897(6) 0.0558(4) Uani 1.000000 .
 O004 O 0.39022(16) 0.2036(3) 0.68872(7) 0.0748(6) Uani 1.000000 .
 O005 O 0.37844(15) 0.5146(3) 0.68846(7) 0.0766(6) Uani 1.000000 .
 C006 C 0.36625(15) 0.3480(3) 0.38901(9) 0.0400(5) Uani 1.000000 .
 C007 C 0.36799(15) 0.5335(3) 0.48679(8) 0.0389(5) Uani 1.000000 .
 C008 C 0.38537(15) 0.1880(3) 0.55442(9) 0.0413(5) Uani 1.000000 .
 C009 C 0.38057(15) 0.3662(3) 0.58770(8) 0.0420(5) Uani 1.000000 .
 C00A C 0.37136(14) 0.3609(3) 0.45565(8) 0.0366(5) Uani 1.000000 .
 C00B C 0.37322(15) 0.5303(3) 0.55517(9) 0.0444(5) Uani 1.000000 .
 C00C C 0.35895(17) 0.7003(3) 0.45051(10) 0.0485(5) Uani 1.000000 .
 C00D C 0.38343(18) 0.3694(4) 0.65928(10) 0.0552(6) Uani 1.000000 .
 C00E C 0.35649(16) 0.5143(3) 0.35438(9) 0.0469(5) Uani 1.000000 .
 C00F C 0.35272(17) 0.6877(3) 0.38521(10) 0.0527(6) Uani 1.000000 .
 C00G C 0.3820(2) 0.1592(4) 0.29754(10) 0.0736(8) Uani 1.000000 .
 H00C H 0.35719(17) 0.8178(3) 0.47042(10) 0.0582(7) Uiso 1.000000 R
 H00F H 0.34580(17) 0.7981(3) 0.36095(10) 0.0632(7) Uiso 1.000000 R
 H00E H 0.35239(16) 0.5102(3) 0.31001(9) 0.0563(6) Uiso 1.000000 R
 H004 H 0.391(3) 0.1185(4) 0.66221(13) 0.1122(8) Uiso 1.000000 GR
 H00B H 0.37149(15) 0.6440(3) 0.57742(9) 0.0532(6) Uiso 1.000000 R
 H00a H 0.3205(6) 0.208(2) 0.27322(10) 0.1104(13) Uiso 1.000000 GR
 H00d H 0.4414(8) 0.233(2) 0.28861(17) 0.1104(13) Uiso 1.000000 GR
 H00g H 0.3919(14) 0.0293(5) 0.2860(2) 0.1104(13) Uiso 1.000000 GR

loop_
  _atom_site_aniso_label
  _atom_site_aniso_U_11
  _atom_site_aniso_U_22
  _atom_site_aniso_U_33
  _atom_site_aniso_U_12
  _atom_site_aniso_U_13
  _atom_site_aniso_U_23
 O001 0.0601(9) 0.0347(9) 0.0324(7) -0.0014(6) 0.0071(6) -0.0005(6)
 O002 0.0847(11) 0.0396(9) 0.0337(7) -0.0051(8) 0.0146(7) -0.0041(6)
 O003 0.0762(11) 0.0470(11) 0.0442(8) -0.0017(8) 0.0069(7) 0.0086(7)
 O004 0.1066(14) 0.0784(14) 0.0391(8) -0.0062(11) 0.0063(9) 0.0078(8)
 O005 0.1052(14) 0.0828(14) 0.0429(8) -0.0072(11) 0.0132(8) -0.0203(9)
 C006 0.0481(12) 0.0358(12) 0.0367(10) -0.0035(10) 0.0083(8) -0.0021(8)
 C007 0.0409(11) 0.0348(12) 0.0412(10) -0.0011(9) 0.0058(8) -0.0038(8)
 C008 0.0446(12) 0.0466(15) 0.0327(9) -0.0044(10) 0.0043(8) 0.0016(9)
 C009 0.0440(11) 0.0478(14) 0.0345(10) -0.0029(10) 0.0056(8) -0.0048(9)
 C00A 0.0407(11) 0.0329(13) 0.0368(9) -0.0024(9) 0.0067(8) 0.0024(8)
 C00B 0.0431(12) 0.0472(14) 0.0432(10) -0.0020(10) 0.0070(9) -0.0124(9)
 C00C 0.0553(13) 0.0342(14) 0.0566(12) 0.0025(10) 0.0097(10) -0.0033(9)
 C00D 0.0582(14) 0.0697(17) 0.0378(11) -0.0075(13) 0.0061(9) -0.0056(12)
 C00E 0.0577(14) 0.0459(14) 0.0374(10) -0.0028(10) 0.0063(9) 0.0054(9)
 C00F 0.0641(15) 0.0405(15) 0.0541(13) 0.0025(11) 0.0093(11) 0.0118(10)
 C00G 0.129(2) 0.0589(17) 0.0382(11) -0.0086(16) 0.0336(13) -0.0093(10)

loop_
  _geom_bond_atom_site_label_1
  _geom_bond_atom_site_label_2
  _geom_bond_distance
  _geom_bond_site_symmetry_2
  _geom_bond_publ_flag
 O001 C008 1.366(2) . ?
 O001 C00A 1.383(2) . ?
 O002 C006 1.356(2) . ?
 O002 C00G 1.436(2) . ?
 O003 C008 1.216(2) . ?
 O004 C00D 1.322(3) . ?
 O004 H004 0.8200 . ?
 O005 C00D 1.199(3) . ?
 C006 C00A 1.400(2) . ?
 C006 C00E 1.379(3) . ?
 C007 C00A 1.386(3) . ?
 C007 C00B 1.433(3) . ?
 C007 C00C 1.400(3) . ?
 C008 C009 1.444(3) . ?
 C009 C00B 1.343(3) . ?
 C009 C00D 1.503(3) . ?
 C00B H00B 0.9300 . ?
 C00C C00F 1.371(3) . ?
 C00C H00C 0.9300 . ?
 C00E C00F 1.388(3) . ?
 C00E H00E 0.9300 . ?
 C00F H00F 0.9300 . ?
 C00G H00a 0.9600 . ?
 C00G H00d 0.9600 . ?
 C00G H00g 0.9600 . ?

loop_
  _geom_angle_atom_site_label_1
  _geom_angle_atom_site_label_2
  _geom_angle_atom_site_label_3
  _geom_angle
  _geom_angle_site_symmetry_1
  _geom_angle_site_symmetry_3
  _geom_angle_publ_flag
 C00A O001 C008 121.55(15) . . ?
 C00G O002 C006 116.01(16) . . ?
 H004 O004 C00D 109.5 . . ?
 C00A C006 O002 116.19(17) . . ?
 C00E C006 O002 126.03(16) . . ?
 C00E C006 C00A 117.77(18) . . ?
 C00B C007 C00A 117.44(18) . . ?
 C00C C007 C00A 119.04(17) . . ?
 C00C C007 C00B 123.52(18) . . ?
 O003 C008 O001 115.98(17) . . ?
 C009 C008 O001 117.96(17) . . ?
 C009 C008 O003 126.05(17) . . ?
 C00B C009 C008 120.50(16) . . ?
 C00D C009 C008 120.13(19) . . ?
 C00D C009 C00B 119.37(19) . . ?
 C006 C00A O001 116.65(17) . . ?
 C007 C00A O001 121.32(15) . . ?
 C007 C00A C006 122.03(18) . . ?
 C009 C00B C007 121.21(18) . . ?
 H00B C00B C007 119.40(12) . . ?
 H00B C00B C009 119.40(11) . . ?
 C00F C00C C007 118.95(19) . . ?
 H00C C00C C007 120.52(11) . . ?
 H00C C00C C00F 120.52(13) . . ?
 O005 C00D O004 121.32(19) . . ?
 C009 C00D O004 116.7(2) . . ?
 C009 C00D O005 122.0(2) . . ?
 C00F C00E C006 120.54(17) . . ?
 H00E C00E C006 119.73(11) . . ?
 H00E C00E C00F 119.73(11) . . ?
 C00E C00F C00C 121.66(19) . . ?
 H00F C00F C00C 119.17(13) . . ?
 H00F C00F C00E 119.17(11) . . ?
 H00a C00G O002 109.5 . . ?
 H00d C00G O002 109.5 . . ?
 H00d C00G H00a 109.5 . . ?
 H00g C00G O002 109.5 . . ?
 H00g C00G H00a 109.5 . . ?
 H00g C00G H00d 109.5 . . ?

loop_
  _refln_index_h
  _refln_index_k
  _refln_index_l
  _refln_F_squared_meas
  _refln_F_squared_sigma
 0 0 -2 560.57 20.97
 0 0 -2 559.46 20.92
 0 0 -3 0.12 0.35
 0 0 3 -0.01 0.37
 0 0 -4 185.25 7.04
 0 0 4 183.42 6.94
 0 0 5 0.43 0.37
 0 0 -5 0.02 0.54
 0 0 -6 153.72 6.25
 0 0 6 165.14 6.14
 0 0 7 0.09 0.45
 0 0 -7 -0.51 0.6
 0 0 8 216.29 8.24
 0 0 9 0.23 0.53
 0 0 10 25.6 1.29
 0 0 11 0.15 1.17
 0 0 11 0.09 0.57
 0 0 11 -0.31 1.14
 0 0 -11 0.54 0.56
 0 0 11 -0.6 0.56
 0 0 11 -0.47 0.61
 0 0 11 0.04 1.12
 0 0 12 21.68 1.13
 0 0 12 16.64 1.11
 0 0 12 18.22 1.44
 0 0 12 18.86 1.48
 0 0 12 18.66 1.09
 0 0 -12 20.64 1.12
 0 0 12 20.03 1.49
 0 0 -13 0.03 0.6
 0 0 13 0.94 1.18
 0 0 13 0.01 0.64
 0 0 13 -0.43 0.7
 0 0 13 -0.01 0.59
 0 0 13 0.22 1.16
 0 0 13 -0.3 1.15
 0 0 14 12.68 0.92
 0 0 14 11.19 1.38
 0 0 14 11.51 0.87
 0 0 14 13.12 1.41
 0 0 -14 10.84 0.91
 0 0 14 11.77 1.36
 0 0 15 -0.74 1.27
 0 0 15 -0.22 1.25
 0 0 15 -0.26 0.67
 0 0 -15 -0.02 0.69
 0 0 15 0.06 0.6
 0 0 15 -0.47 1.27
 0 0 15 0.26 0.61
 0 0 16 67.61 3.14
 0 0 16 65.84 3.15
 0 0 16 64.76 2.88
 0 0 16 68.82 3.16
 0 0 16 67.74 2.92
 0 0 16 70.95 3.04
 0 0 -16 67.79 2.97
 0 0 16 68.5 2.93
 0 0 -17 -0.34 0.78
 0 0 17 -0.5 1.34
 0 0 17 0.46 0.64
 0 0 17 0.27 1.31
 0 0 -18 5.71 0.89
 0 0 18 5.96 0.81
 0 0 18 6.35 1.43
 0 0 18 6.48 1.43
 0 0 -19 0.17 0.81
 0 0 19 -0.2 1.36
 0 0 19 -0.49 0.66
 0 0 20 26.95 1.89
 0 0 -20 24.75 1.49
 0 0 -21 0.1 0.71
 0 0 21 0.67 1.3
 0 0 -22 5.05 0.82
 0 0 22 7.68 1.37
 0 0 23 -0.4 1.23
 0 0 -23 0.09 0.66
 0 0 -24 0.79 0.58
 0 0 24 0.83 1.08
 0 0 25 0.27 0.97
 0 0 25 0.27 0.94
 0 -2 0 38.61 1.84
 0 2 0 33.5 1.49
 0 -2 1 69.78 2.84
 0 -2 1 61 2.57
 0 2 1 67.7 2.6
 0 -2 -1 63.62 2.93
 0 2 -1 63.3 2.56
 0 2 2 3.53 0.59
 0 -2 2 3.22 0.48
 0 -2 2 2.95 0.71
 0 2 -2 3.23 0.5
 0 -2 3 3.16 0.57
 0 2 -3 3.38 0.49
 0 2 3 3.39 0.66
 0 -2 3 2.79 0.47
 0 -2 -3 2.78 0.93
 0 2 4 1.95 0.63
 0 2 -4 1.49 0.47
 0 -2 4 1.35 0.45
 0 -2 -4 2.06 1.01
 0 2 -5 144.7 5.66
 0 -2 -5 155.88 6.21
 0 -2 5 148.56 5.66
 0 -2 6 4.84 0.54
 0 2 -6 5.4 0.56
 0 -2 -6 5.41 1.16
 0 -2 7 22.54 1.1
 0 2 -7 22.52 1.1
 0 -2 -7 22.24 1.75
 0 2 7 21.84 1.32
 0 2 8 57.07 2.48
 0 2 -8 55.47 2.28
 0 -2 -8 53.76 2.94
 0 -2 8 54.89 2.29
 0 -2 9 57.63 2.43
 0 2 9 54.53 2.37
 0 -2 -9 58.72 2.35
 0 -2 9 53.59 2.28
 0 -2 9 52.08 2.33
 0 -2 -9 57.18 2.99
 0 -2 9 48.23 2.95
 0 2 9 55.72 2.5
 0 -2 9 54.38 2.5
 0 2 10 1.25 0.62
 0 2 10 1.62 1.15
 0 -2 10 1.67 0.56
 0 -2 10 2.14 0.68
 0 -2 10 1.25 1.33
 0 -2 10 1.02 1
 0 -2 10 1.34 1.12
 0 2 10 1.18 1.14
 0 -2 -10 1.38 0.61
 0 -2 -10 1.84 1.08
 0 -2 11 10.7 1.32
 0 2 11 11.98 1.28
 0 -2 -11 9.67 0.9
 0 -2 11 10.9 0.91
 0 2 11 11.49 1.32
 0 -2 11 11.28 1.16
 0 2 12 60.27 2.69
 0 -2 12 57.22 2.6
 0 2 12 58.53 2.69
 0 -2 12 54.52 2.72
 0 -2 -12 60.23 2.55
 0 -2 12 58.86 2.57
 0 -2 12 50.82 3.56
 0 -2 13 0.09 1.05
 0 2 13 -0.81 1.22
 0 -2 13 -0.22 0.69
 0 -2 13 0.17 1.18
 0 -2 13 -0.65 1.24
 0 -2 -13 -0.31 0.61
 0 -2 13 2.73 2.74
 0 2 13 -0.16 1.22
 0 2 14 12.2 2.03
 0 2 14 13.23 1.47
 0 2 14 14.66 1.41
 0 -2 14 11.61 1.47
 0 -2 -14 12.13 1.05
 0 -2 14 13.35 1.07
 0 -2 14 13.36 1.27
 0 -2 14 13.14 1.03
 0 -2 14 13.87 1.5
 0 -2 15 101.16 4.27
 0 -2 -15 108.08 4.32
 0 2 15 106.17 5.6
 0 2 15 106.59 4.39
 0 -2 15 100.18 4.38
 0 -2 15 98.78 4.31
 0 -2 15 101.69 4.43
 0 2 15 104.24 4.39
 0 2 16 3.12 0.82
 0 -2 16 3.31 0.82
 0 -2 -16 3.44 0.89
 0 2 16 4.37 1.34
 0 -2 16 3.04 1.35
 0 2 16 4.4 1.41
 0 -2 16 3.09 1.44
 0 -2 16 4.48 1.31
 0 -2 17 15.95 1.7
 0 -2 17 15.96 1.53
 0 -2 17 14.67 1.2
 0 2 17 15.46 1.22
 0 -2 -17 15.08 1.2
 0 2 17 16.15 1.56
 0 2 17 13.99 1.6
 0 -2 17 12.7 1.57
 0 2 -17 15.79 1.2
 0 -2 18 13.25 1.48
 0 -2 -18 11.45 1.15
 0 2 18 12.68 1.46
 0 2 -18 11.01 1.09
 0 -2 18 13.44 1.53
 0 -2 18 10.7 1.61
 0 2 18 12.72 1.14
 0 2 18 11.19 1.56
 0 -2 18 12.12 1.14
 0 2 19 -1.1 0.8
 0 2 -19 0.48 0.79
 0 -2 19 0.13 1.32
 0 2 19 0.08 1.26
 0 -2 19 1 1.47
 0 -2 19 -0.08 1.3
 0 -2 19 -0.29 0.78
 0 -2 -19 0.02 0.78
 0 2 20 1.75 0.77
 0 -2 20 2.36 0.77
 0 -2 20 2.7 1.29
 0 2 -20 1.98 0.78
 0 -2 -20 2.81 0.81
 0 -2 20 2.7 1.33
 0 2 21 1.19 1.31
 0 -2 -21 1.83 0.8
 0 2 21 1.43 0.73
 0 2 -21 0.98 0.72
 0 -2 21 2.58 1.24
 0 -2 22 -0.19 1.21
 0 -2 22 -0.17 1.27
 0 2 22 0.32 1.24
 0 2 -22 0.64 0.65
 0 2 22 0.19 0.65
 0 -2 22 0.04 1.14
 0 -2 -22 -0.02 0.69
 0 2 -23 0.12 0.57
 0 -2 23 0.59 1.12
 0 2 23 0.01 0.56
 0 2 23 0.73 1.15
 0 -2 -23 -0.08 0.61
 0 -2 23 0.45 1.14
 0 -2 23 0.49 1.02
 0 2 24 1.34 1.01
 0 -2 24 0.8 0.98
 0 -4 0 9.23 1.07
 0 -4 0 8.32 1.04
 0 -4 0 7.51 1.24
 0 -4 0 7.49 1.77
 0 -4 0 6.22 1.21
 0 -4 0 6.74 0.91
 0 -4 -1 29.24 1.6
 0 -4 1 28.05 1.52
 0 -4 -1 29.44 1.75
 0 -4 -1 32.17 1.64
 0 -4 -1 26.28 2.15
 0 -4 1 30.85 1.6
 0 -4 1 29.89 1.62
 0 -4 1 30.13 1.98
 0 -4 -2 -0.15 0.92
 0 -4 2 0.17 0.92
 0 -4 -2 0.74 1.7
 0 -4 2 0.08 0.83
 0 -4 -2 -0.12 0.99
 0 -4 2 -0.35 0.95
 0 -4 2 0.01 0.8
 0 -4 -3 46.97 2.14
 0 -4 3 47 2.07
 0 -4 -3 42.75 2.59
 0 -4 -3 48.21 2.08
 0 -4 3 49.03 2.22
 0 -4 4 35.22 1.75
 0 -4 -4 32.52 1.6
 0 -4 4 32.22 2.45
 0 -4 4 33.27 1.6
 0 -4 -4 29.53 2.24
 0 -4 -4 32.81 1.74
 0 -4 -4 33.57 1.53
 0 -4 -5 0.39 1.76
 0 -4 5 0.13 1.42
 0 -4 -5 0.15 0.97
 0 -4 5 -0.33 0.54
 0 -4 5 2.66 7.72
 0 -4 -5 0.16 1.01
 0 -4 5 -0.17 0.7
 0 -4 -5 0.27 0.56
 0 -4 5 0.18 1.01
 0 -4 6 15.26 13.61
 0 -4 6 10.59 0.99
 0 -4 -6 10.86 0.85
 0 -4 -6 9.38 1.2
 0 -4 6 9.4 1.2
 0 -4 6 10.12 0.84
 0 -4 -6 9.3 1.82
 0 -4 -6 9.53 1.13
 0 -4 7 5.65 3.2
 0 -4 -7 6.99 1.16
 0 4 7 5.89 0.7
 0 -4 -7 5.98 0.7
 0 -4 7 5.34 1.16
 0 -4 -7 5.23 1.8
 0 -4 -7 4.84 1
 0 -4 7 6.24 0.74
 0 -4 8 20.65 1.46
 0 -4 8 20.09 1.19
 0 -4 -8 20.95 2.01
 0 -4 8 18.44 1.5
 0 4 8 18.27 1.13
 0 -4 -8 19.59 1.39
 0 -4 -8 19.86 1.22
 0 -4 -8 19.36 1.16
 0 -4 8 20.03 5.24
 0 -4 9 2.85 1.22
 0 -4 9 -1.62 6.69
 0 -4 -9 2.44 1.8
 0 -4 9 7.06 7.68
 0 -4 9 2.44 1.11
 0 4 9 2 0.68
 0 -4 9 2.75 0.66
 0 -4 -9 2.28 0.98
 0 -4 -9 2.18 0.78
 0 -4 -9 2.82 0.66
 0 -4 -10 1.66 0.63
 0 -4 10 0.8 7.36
 0 -4 10 1.55 1.13
 0 -4 -10 0.95 0.96
 0 4 10 2.57 0.7
 0 -4 -10 1.95 0.8
 0 -4 10 3.37 1.27
 0 -4 -10 1.44 1.81
 0 -4 10 1.57 0.67
 0 -4 -11 0.19 0.66
 0 -4 -11 0.1 1.81
 0 -4 11 -0.06 1.21
 0 -4 11 0.88 6.54
 0 -4 11 -0.38 1.14
 0 -4 11 -0.15 1.24
 0 -4 -11 -0.02 0.78
 0 4 11 0.44 0.67
 0 -4 -11 0.45 0.93
 0 4 12 4.16 0.86
 0 -4 12 6.31 1.35
 0 -4 12 5.99 1.32
 0 -4 12 3.18 4.5
 0 -4 -12 3.9 0.73
 0 -4 12 4.81 1.21
 0 4 12 5.3 1.27
 0 -4 -12 2.9 0.93
 0 -4 13 1.66 1.32
 0 4 13 0.96 0.78
 0 -4 13 1.67 1.38
 0 -4 13 3.45 2.7
 0 -4 -13 1.58 0.68
 0 -4 13 2.06 1.35
 0 4 13 0.71 1.27
 0 -4 13 1.7 1.2
 0 -4 -13 1.8 0.91
 0 -4 14 10.07 1.51
 0 -4 14 9.54 1.44
 0 -4 -14 6.59 0.84
 0 4 14 8.72 1.01
 0 -4 14 9.04 1.46
 0 4 14 10.17 1.95
 0 -4 14 8.65 1.31
 0 -4 -14 5.1 1.04
 0 4 14 8.37 1.41
 0 -4 14 6.06 4.63
 0 -4 15 6.25 1.44
 0 -4 15 6.8 1.34
 0 -4 -15 6.88 1.01
 0 -4 15 12.28 2.95
 0 -4 15 6.75 1.36
 0 -4 15 5.43 1.46
 0 4 15 6.4 1.39
 0 4 15 6.68 2.96
 0 -4 -15 5.07 0.79
 0 -4 15 5.56 1.02
 0 4 15 7.75 0.98
 0 4 16 15.13 1.19
 0 4 16 16.71 1.57
 0 -4 16 14.32 1.66
 0 -4 16 14.15 1.43
 0 -4 16 16.65 1.56
 0 -4 16 12.98 1.22
 0 4 16 15.02 8.16
 0 -4 16 15.65 1.64
 0 -4 -16 14.18 1.27
 0 -4 17 4.56 1.28
 0 -4 17 3.3 0.93
 0 4 17 3.09 0.83
 0 -4 17 3.05 1.37
 0 -4 -17 4.16 0.91
 0 -4 17 4.67 1.42
 0 4 17 4.34 13.61
 0 -4 18 2.24 1.34
 0 -4 18 1.41 1.19
 0 4 18 -2.23 15.32
 0 -4 18 2.61 1.35
 0 -4 -18 1.6 0.83
 0 4 18 1.49 0.78
 0 4 -18 2.48 0.8
 0 -4 18 2.61 0.89
 0 -4 19 -0.56 1.29
 0 -4 19 0.89 1.25
 0 4 -19 -0.14 0.63
 0 4 19 0.17 0.67
 0 -4 19 1.17 0.77
 0 4 -20 -0.38 0.62
 0 -4 20 0.33 1.16
 0 -4 20 -0.07 1.18
 0 -4 20 -0.05 1.18
 0 4 20 0.07 0.67
 0 -4 20 -0.67 0.7
 0 4 21 0.54 0.58
 0 -4 21 0.19 1.03
 0 -4 21 0.71 1.05
 0 4 -21 -0.06 0.53
 0 4 22 0.08 0.48
 0 -4 22 0.18 0.93
 0 -6 0 230.07 9.29
 0 -6 0 236.92 9.42
 0 -6 0 243.34 9.73
 0 -6 1 -0.55 5.6
 0 -6 -1 2.78 1.4
 0 -6 -1 4.47 2.02
 0 -6 -1 5.06 2.01
 0 -6 1 3.34 1.22
 0 -6 -2 8.17 1.46
 0 -6 -2 7.04 1.22
 0 -6 2 8.54 1.32
 0 -6 -2 7.64 2.04
 0 -6 3 -8.35 18.64
 0 -6 -3 0.63 1.06
 0 -6 -3 0.55 1.93
 0 -6 3 0.77 1.22
 0 -6 -3 -0.63 1.35
 0 -6 -4 8.26 2.04
 0 -6 4 8.89 1.34
 0 -6 -4 9.25 1.48
 0 -6 -4 7.5 1.19
 0 -6 -4 7.16 1.43
 0 -6 4 12.91 21.29
 0 -6 -5 1.11 1.98
 0 -6 5 7.5 20.57
 0 -6 -5 -0.29 1.27
 0 -6 5 -0.51 1.23
 0 -6 -5 -0.32 1.04
 0 -6 -5 -0.56 1.37
 0 -6 6 1.84 15.61
 0 -6 -6 3.62 1.93
 0 -6 -6 2.34 1.43
 0 -6 -6 3.03 1.07
 0 -6 -6 2.15 1.29
 0 -6 6 2.34 1.26
 0 -6 7 0.17 0.63
 0 -6 7 0.72 1.24
 0 -6 -7 0.45 1.03
 0 -6 -7 0.25 1.43
 0 -6 -7 0.27 1.26
 0 -6 -7 0.97 1.92
 0 -6 7 6.57 8.1
 0 -6 8 -9.16 13
 0 -6 -8 0.06 1.01
 0 -6 -8 -0.02 1.26
 0 -6 -8 0.04 1.96
 0 -6 -8 0.34 1.87
 0 -6 8 -0.1 1.2
 0 -6 8 1.23 9.18
 0 6 9 56.54 2.76
 0 -6 9 47.59 10.06
 0 -6 -9 55.39 3.84
 0 -6 9 51.44 2.5
 0 -6 -9 42.54 2.54
 0 -6 9 52.94 15.84
 0 -6 -9 46.6 2.44
 0 -6 -10 -1.15 1.05
 0 -6 -10 1.36 1.92
 0 -6 10 3.5 9.39
 0 -6 -10 0.26 4.98
 0 6 10 1.15 1.74
 0 -6 11 18.24 1.66
 0 -6 -11 21.57 7.33
 0 -6 -11 20.32 2.12
 0 -6 -11 20.12 1.51
 0 -6 11 18.1 7.29
 0 6 11 24.43 2.08
 0 -6 -12 4.44 1.08
 0 -6 12 6.54 1.22
 0 -6 12 5.19 1.35
 0 6 12 6.96 2.16
 0 -6 12 3.79 0.82
 0 6 13 -0.99 4.74
 0 -6 13 0.42 0.77
 0 -6 -13 0.33 0.98
 0 -6 13 -0.09 1.16
 0 -6 13 -7.57 8.21
 0 -6 13 -0.26 1.24
 0 -6 14 2.26 1.15
 0 -6 14 -1.09 4.25
 0 -6 14 1.21 1.19
 0 -6 -14 1.51 1.02
 0 -6 14 1.72 0.74
 0 -6 14 1.25 1.14
 0 -6 15 0.25 1.1
 0 -6 15 -0.02 1.1
 0 -6 15 0.52 0.68
 0 -6 -15 0.2 0.94
 0 -6 -15 -0.06 1.13
 0 -6 15 0.1 1.13
 0 -6 16 5.46 1.09
 0 6 16 8.33 12.28
 0 -6 -16 4.64 0.95
 0 -6 16 5.23 0.72
 0 -6 -16 3.85 1.11
 0 -6 16 4.58 1.05
 0 -6 -17 -0.66 0.79
 0 -6 17 0.17 0.91
 0 6 17 -4.63 10.02
 0 -6 17 0.51 0.55
 0 6 -17 0.02 0.48
 0 -6 -17 0.16 0.96
 0 -8 -1 5.44 11.51
 0 -8 -2 5.54 1.66
 0 -8 -2 0.08 12.8
 0 -8 2 2.32 10.52
 0 -8 3 4.75 12.4
 0 -8 -3 7.94 1.39
 0 -8 -3 1.62 13.61
 0 -8 -4 5.52 13.97
 0 -8 4 1.25 7.75
 0 -8 4 12.04 13
 0 -8 -4 0.72 1.21
 0 -8 5 6.46 7.41
 0 -8 -5 10.87 1.31
 0 -8 -5 10.43 13.77
 0 -8 -6 12.9 12.94
 0 8 -6 17.67 22.5
 0 -8 -6 -0.01 1.12
 0 -8 6 4.7 6.73
 0 -8 7 -1.12 5.08
 0 -8 -7 -0.46 1.06
 0 -8 -7 0.34 11.54
 0 -8 -8 1.87 1.01
 -1 -1 25 0.73 0.93
 -1 1 25 0.53 0.98
 -1 -1 25 0.33 0.91
 1 -1 -24 3.06 0.64
 -1 -1 24 3.39 1.16
 -1 1 24 4.13 1.17
 1 1 -24 2.58 0.63
 -1 -1 24 4.17 1.12
 1 -1 -23 -0.02 0.66
 -1 1 23 0.14 0.55
 1 1 -23 0.31 0.63
 -1 -1 23 0.44 1.2
 -1 -1 22 0.97 1.32
 1 1 -22 0.37 0.74
 -1 1 22 1.89 1.21
 1 -1 -22 0.39 0.74
 -1 -1 22 -0.07 1.36
 -1 1 22 -0.25 0.64
 -1 -1 22 -0.08 1.15
 -1 -1 21 1.78 1.23
 -1 -1 21 1.48 1.34
 -1 1 21 0.63 1.31
 1 -1 -21 2.62 0.88
 1 1 -21 0.96 0.79
 -1 -1 21 2.71 1.39
 -1 1 21 1.94 1.35
 -1 1 21 2.27 0.75
 -1 1 21 2.3 1.34
 -1 1 20 8.55 1.48
 -1 1 20 10.71 1.02
 -1 -1 20 10.92 1.41
 -1 -1 20 9.92 1.54
 1 -1 -20 9.52 1.1
 1 1 -20 11.42 1.09
 -1 -1 20 11.28 1.51
 -1 1 20 10.66 1.48
 -1 -1 20 9.49 1.49
 -1 1 20 10.48 1.49
 -1 1 19 1.68 1.36
 -1 1 19 1.19 0.79
 -1 1 19 0.46 1.33
 1 -1 -19 0.73 0.88
 -1 -1 19 0.37 1.41
 -1 1 19 0.89 1.3
 -1 -1 19 1.39 0.75
 -1 -1 19 1.56 1.36
 1 1 -19 0.97 0.87
 -1 -1 19 1.37 1.29
 -1 -1 19 0.98 1.35
 -1 -1 18 5.3 1.41
 -1 1 18 3.79 1.39
 1 1 -18 3.23 0.94
 -1 -1 18 5.45 1.43
 -1 -1 18 4.94 1.39
 1 -1 -18 3.81 0.92
 -1 1 18 4.5 0.9
 -1 1 18 3.83 1.37
 -1 1 18 4.37 1.34
 -1 -1 18 4.34 0.82
 -1 -1 18 4.92 0.9
 -1 -1 18 4.65 1.38
 1 -1 -17 11.08 1.12
 -1 -1 17 10.42 1.52
 -1 1 17 11.65 1.47
 -1 -1 17 10.63 1.51
 -1 -1 17 11.87 1.05
 -1 -1 17 11.22 1.52
 -1 1 17 12.65 1.51
 -1 -1 17 11.43 1.01
 1 1 -17 8.73 1.08
 -1 -1 17 12.24 1.49
 -1 1 16 1.35 1.27
 -1 -1 16 1.37 1.32
 -1 -1 16 0.95 1.27
 1 1 -16 0.83 0.74
 -1 1 16 0.71 1.26
 -1 -1 16 1.49 0.76
 -1 -1 16 1.81 0.7
 -1 -1 16 1.64 1.35
 -1 -1 16 1.42 1.26
 1 -1 -16 0.67 0.8
 -1 -1 15 -0.23 0.68
 -1 -1 15 0.48 1.21
 -1 -1 15 -0.09 1.25
 -1 -1 15 0.28 0.73
 -1 1 15 0.5 1.3
 -1 1 15 0.08 1.21
 1 -1 -15 0.34 0.74
 -1 -1 15 0.04 1.26
 1 1 -15 1.24 0.7
 -1 1 14 7.89 1.28
 -1 -1 14 8.08 0.84
 -1 -1 14 8.19 1.37
 -1 -1 14 8.98 0.9
 -1 -1 14 7.63 1.36
 1 -1 -14 8.18 0.86
 -1 -1 14 8.42 1.28
 -1 1 13 9 1.3
 -1 -1 13 9.71 1.34
 -1 -1 13 11.96 0.93
 -1 -1 13 10.35 1.36
 -1 -1 13 6.84 0.87
 -1 1 13 9.72 1.25
 1 -1 -13 10.4 0.87
 -1 -1 13 10.82 1.27
 -1 -1 12 6.39 0.8
 -1 1 12 6.36 1.19
 -1 -1 12 6.36 1.15
 -1 -1 12 6.82 1.28
 -1 -1 12 6.6 1.25
 -1 1 12 6.53 0.78
 -1 1 12 7.03 1.23
 -1 -1 12 5.7 0.79
 -1 1 12 5.88 1.17
 1 -1 -12 6.38 0.73
 1 -1 -11 16.74 1.01
 -1 1 11 16.72 1.37
 -1 1 11 15.48 1.36
 -1 -1 11 17.86 1.05
 -1 1 11 15.28 1.04
 1 -1 -11 15.79 1
 -1 -1 11 16.56 1.06
 -1 -1 11 14.41 1.39
 -1 1 11 14.67 1.3
 -1 1 10 0.05 0.59
 1 1 -10 -0.13 0.52
 -1 -1 10 0.41 1.14
 1 -1 -10 0.03 0.54
 -1 -1 10 -0.02 0.65
 1 -1 -10 -0.19 0.6
 -1 1 9 46.95 1.92
 1 1 -9 40.75 1.85
 -1 -1 9 42.52 1.9
 -1 1 8 0.5 0.51
 -1 -1 8 -0.27 0.56
 -1 1 8 0.18 0.85
 1 1 -8 -0.29 0.48
 -1 1 7 23.37 1.57
 1 -1 -7 21.75 1.49
 1 1 -7 22.39 1.13
 -1 -1 7 23.87 1.12
 -1 1 6 6.2 0.97
 -1 -1 6 5.71 0.45
 1 -1 -6 7.04 1.03
 1 1 -6 6.74 0.58
 -1 -1 6 6.71 0.57
 -1 -1 5 105.91 4.14
 1 -1 -5 106.83 4.42
 -1 1 5 101.92 4.46
 -1 1 5 103.04 4.14
 1 1 -5 113.05 4.14
 1 1 -4 103.74 3.98
 -1 -1 4 101.57 3.97
 1 1 -4 102.29 3.96
 1 -1 -4 105.17 4.24
 1 1 -3 11.56 0.73
 1 1 -3 12.95 0.7
 -1 1 3 10.61 1.1
 1 -1 -3 12.81 1.02
 1 -1 -2 29.72 1.53
 -1 1 2 34.26 1.61
 -1 -1 2 30.26 1.31
 1 1 -2 32.52 1.32
 -1 -1 1 547.37 20.48
 1 1 -1 547.52 20.48
 -1 1 1 542.04 20.64
 -1 1 0 245.53 9.17
 1 1 0 249.97 9.04
 -1 1 0 226.21 9.03
 -1 -1 0 244.8 9.04
 -1 -1 -1 198.44 7.16
 1 1 1 199.84 7.15
 1 -1 1 185.65 7.12
 -1 1 -1 192.86 7.24
 -1 1 -1 180.98 7.11
 -1 -1 -2 0.9 0.39
 1 -1 2 0.29 0.24
 -1 1 -2 0.68 0.44
 -1 1 -2 0.02 0.2
 -1 1 -2 0.38 0.42
 -1 -1 -3 248.36 8.88
 -1 1 -3 223.98 8.59
 -1 1 -3 235.9 8.6
 -1 1 -3 222.4 8.53
 1 -1 3 227.74 8.53
 -1 1 -4 210.56 7.69
 1 1 4 200.2 7.78
 1 -1 4 198.05 7.69
 -1 -1 -4 221.64 8.07
 -1 -1 -5 51.86 2.3
 1 1 5 47.45 1.95
 1 -1 5 44.74 1.82
 -1 1 -5 46.81 1.82
 -1 1 -6 117.14 4.54
 -1 -1 -6 126.31 5.01
 1 -1 6 121.56 4.55
 1 1 6 118.63 4.68
 1 -1 7 15.93 0.76
 -1 1 -7 14.15 0.73
 -1 -1 -7 15.61 1.32
 1 -1 8 5.16 0.53
 -1 -1 -8 5.08 1.04
 1 1 8 5.51 0.6
 1 1 9 102.78 4.03
 1 -1 9 100.06 3.96
 -1 -1 -9 106.76 4.51
 1 1 10 31.18 1.44
 -1 -1 -10 29.6 1.87
 1 -1 10 28.48 1.36
 1 1 10 32.53 1.78
 1 -1 10 32.71 1.49
 -1 -1 -10 30.06 1.45
 1 -1 10 30.44 1.47
 1 1 10 31.19 1.75
 1 -1 10 32.09 1.76
 1 -1 11 85.46 3.66
 1 -1 11 93.04 3.76
 1 1 11 95.16 3.89
 1 -1 11 89.71 3.84
 1 -1 11 92.19 3.76
 1 -1 11 96.76 3.78
 -1 -1 -11 97.7 3.75
 1 -1 11 97.93 3.87
 1 1 11 88.88 3.84
 1 1 11 94.49 3.75
 1 1 11 94.35 3.88
 1 1 12 0.82 0.6
 1 -1 12 0.44 0.63
 1 -1 12 0.54 1.2
 1 -1 12 -0.69 0.64
 1 -1 12 0.74 1.15
 -1 -1 -12 0.59 0.6
 1 1 12 1.09 1.22
 1 1 12 0.18 1.17
 1 1 12 0.73 1.12
 1 -1 12 -0.26 1.21
 1 1 12 -1.69 2.35
 1 -1 13 2.04 0.65
 1 1 13 0.67 1.18
 1 1 13 2.01 1.22
 1 -1 13 1.31 0.68
 1 1 13 1.16 0.65
 1 -1 13 2.14 1.26
 -1 -1 -13 1.25 0.64
 1 -1 13 2.02 1.24
 1 1 13 1.66 1.26
 1 -1 13 1.15 1.25
 1 1 14 39.73 1.94
 -1 1 -14 41.83 1.92
 1 -1 14 41.9 2.24
 1 1 14 42.43 2.22
 -1 -1 -14 42.03 1.92
 1 -1 14 39.59 2.2
 1 -1 14 37.8 2.18
 1 1 14 37.28 2.13
 1 -1 14 36.84 2.2
 1 -1 14 40.17 1.94
 1 -1 14 42.93 2.13
 1 1 14 40.13 2.2
 1 -1 15 41.19 2.21
 1 1 15 40.54 2.25
 1 1 15 40.3 1.97
 1 -1 15 39.44 2.25
 1 1 15 38.05 2.18
 1 -1 15 38.46 1.95
 1 -1 15 40.96 2.14
 -1 1 -15 40.04 1.93
 -1 -1 -15 41.97 1.96
 1 -1 15 40.02 2.26
 1 -1 16 -0.5 1.22
 -1 -1 -16 0.34 0.72
 1 -1 16 0.59 0.79
 1 -1 16 0.02 1.34
 1 1 16 -0.24 0.75
 1 1 16 0.62 1.29
 1 1 16 0.18 1.28
 1 -1 16 0.81 1.32
 -1 1 -16 0.35 0.71
 1 -1 16 -0.06 1.32
 -1 -1 -17 0.1 0.72
 1 1 17 0.43 1.37
 1 1 17 -0.56 1.33
 1 1 17 0.67 0.73
 -1 1 -17 0.08 0.74
 1 -1 17 2.08 1.34
 1 -1 17 -0.82 0.72
 1 -1 17 1.15 1.3
 1 -1 17 0.5 1.42
 1 -1 17 -0.14 1.25
 1 -1 18 5.56 1.34
 1 -1 18 4.19 1.36
 1 1 18 5.02 1.37
 1 1 18 4.44 0.85
 1 -1 18 4.97 1.46
 1 -1 18 5.05 1.43
 -1 1 -18 4.89 0.86
 1 1 18 4.51 1.41
 -1 -1 -18 3.95 0.8
 1 -1 19 0.17 1.42
 -1 1 -19 0.38 0.72
 1 1 19 0.79 0.73
 1 -1 19 0.05 1.32
 1 1 19 -0.16 1.36
 -1 -1 -19 0.08 0.76
 1 -1 19 0.57 1.33
 1 -1 20 3.93 1.4
 -1 1 -20 2.36 0.78
 1 1 20 3.15 1.37
 -1 -1 -20 2.39 0.81
 1 -1 20 3.75 1.3
 1 1 20 2.4 0.76
 1 1 21 4.64 1.41
 -1 1 -21 5.02 0.8
 1 1 21 5.63 0.81
 -1 -1 -21 5.77 0.83
 1 -1 21 5.66 1.26
 1 -1 21 7.18 1.4
 1 1 21 5.19 1.38
 1 -1 22 1.02 1.31
 1 1 22 0.13 0.59
 1 1 22 -0.75 1.31
 1 -1 22 -0.26 1.31
 -1 1 -22 -0.22 0.63
 1 1 22 -0.05 1.22
 -1 -1 -22 0.24 0.65
 1 1 23 0.96 1.2
 1 -1 23 -0.11 1.23
 1 -1 23 0.18 1.19
 1 -1 24 0.44 1.08
 1 1 24 0.75 1.02
 1 -1 24 -0.01 1.08
 1 1 24 0.6 1.08
 1 3 -23 -0.24 0.52
 1 -3 -23 0.25 0.54
 -1 -3 23 0.13 1.03
 -1 3 23 0.1 0.52
 -1 -3 23 -0.47 0.96
 -1 -3 22 0.68 1.17
 1 3 -22 -0.49 0.62
 -1 -3 22 0.9 1.09
 -1 3 22 0.11 0.6
 1 -3 -22 0.94 0.63
 1 3 -21 1.42 0.72
 -1 -3 21 1.1 1.26
 -1 3 21 0.95 1.22
 -1 -3 21 0.4 0.72
 -1 3 21 1.02 0.68
 -1 -3 21 1.5 1.18
 -1 -3 21 1.54 1.19
 1 -3 -21 1.3 0.74
 -1 -3 20 3.8 1.31
 -1 -3 20 3.97 1.38
 -1 3 20 3.6 1.32
 1 -3 -20 2.98 0.85
 -1 3 20 4.2 1.29
 -1 -3 20 2.59 0.77
 1 3 -20 3.24 0.79
 -1 -3 20 4.55 1.24
 1 3 -19 3.19 0.85
 -1 3 19 2.18 1.3
 -1 -3 19 3.49 1.25
 -1 -3 19 2.93 1.34
 -1 -3 19 1.83 0.85
 1 -3 -19 2.62 0.9
 -1 -3 19 3.83 1.43
 -1 -3 18 4.69 0.94
 -1 3 18 5.15 1.34
 -1 -3 18 4.37 1.46
 1 -3 -18 3.41 0.97
 -1 -3 18 3.88 1.24
 -1 3 18 -1.77 12.68
 -1 3 18 3.85 0.88
 1 3 -18 3.33 0.87
 -1 -3 17 -0.35 0.88
 -1 3 17 0.02 1.37
 -1 3 17 -0.7 0.88
 -1 3 17 -0.62 7.15
 -1 3 17 0.1 1.31
 -1 -3 17 0.35 1.21
 -1 -3 17 0.5 1.4
 1 -3 -17 0.1 0.85
 -1 3 16 311.5 12.58
 -1 -3 16 321.51 12.55
 -1 3 16 326.94 12.66
 1 -3 -16 339.84 12.69
 -1 -3 16 319.63 12.63
 -1 -3 16 322.87 12.68
 -1 3 16 339.69 12.67
 -1 -3 16 334.4 12.66
 -1 3 16 326.92 12.64
 -1 -3 15 26.65 1.74
 -1 3 15 28.43 1.84
 -1 3 15 27.53 1.87
 -1 -3 15 26.13 1.93
 1 -3 -15 26.67 1.66
 -1 -3 14 202.51 8.12
 -1 3 14 205.91 8.09
 -1 -3 14 204.34 8.4
 1 -3 -14 212.76 8.13
 -1 -3 14 199.19 8.02
 -1 -3 13 13.55 1.32
 -1 3 13 14.98 1.45
 -1 -3 13 13.34 1.07
 1 -3 -13 13.64 1.16
 -1 -3 13 13.61 1.5
 1 -3 -12 43.16 2.02
 -1 -3 12 43.42 2.12
 -1 -3 12 39.29 2.23
 -1 -3 12 42.99 2.02
 -1 3 12 45.4 2.17
 1 -3 -12 38.46 2.08
 1 -3 -12 38.8 2.46
 -1 -3 11 8.92 1.35
 -1 -3 11 8.63 1.2
 1 -3 -11 9.5 1.19
 1 -3 -11 9.62 0.95
 1 -3 -11 9.34 1.77
 -1 3 11 9.91 1.25
 -1 -3 11 7.86 0.83
 -1 -3 11 8.86 0.9
 -1 -3 10 24.65 1.36
 -1 -3 10 25.51 1.53
 -1 -3 10 23.25 1.31
 -1 -3 10 23.32 1.6
 1 -3 -10 20.99 2.01
 1 -3 -10 25.03 1.35
 1 -3 -10 23.88 1.51
 1 -3 -10 20.15 1.34
 -1 3 10 25.95 1.55
 1 -3 -9 0.41 1.02
 -1 -3 9 0.98 1.11
 1 -3 -9 0.3 1.66
 -1 -3 9 -0.13 0.62
 -1 3 9 -0.23 1.06
 1 -3 -9 0.26 0.83
 -1 -3 9 0.47 0.56
 1 -3 -9 0.12 0.64
 -1 -3 9 -0.18 0.64
 -1 -3 8 4.89 1.12
 1 -3 -8 4.66 0.72
 1 -3 -8 5.15 1.08
 -1 -3 8 4.74 0.66
 1 -3 -8 4.72 0.9
 1 -3 -8 4.14 0.71
 1 -3 -8 4.3 1.7
 -1 -3 8 4.95 0.71
 -1 3 8 5.37 1.1
 -1 -3 8 4.97 0.71
 -1 -3 7 65.19 2.74
 1 -3 -7 66.94 2.71
 1 -3 -7 64.33 2.81
 1 -3 -7 60.9 3.08
 -1 -3 7 66.08 2.7
 1 -3 -7 60.71 2.74
 -1 -3 7 65.17 3.84
 1 -3 -7 67.91 2.75
 -1 -3 7 76.57 5.58
 -1 -3 7 62.26 2.7
 -1 -3 6 90.27 3.55
 1 -3 -6 81.31 4.19
 1 -3 -6 89.39 3.5
 -1 -3 6 86.92 3.77
 -1 -3 6 85.45 3.5
 1 -3 -6 89.18 3.54
 1 3 -6 87.74 3.56
 1 -3 -6 81.33 3.52
 1 -3 -6 88.09 3.81
 1 -3 -6 85.35 3.57
 1 -3 -5 130.2 5.25
 -1 -3 5 135.12 5.33
 -1 -3 5 136.05 5.25
 -1 -3 5 133.7 5.31
 1 3 -5 131.67 5.24
 -1 -3 4 22.28 1.22
 1 3 -4 23.63 1.21
 -1 3 4 20.87 1.26
 -1 -3 3 1.1 0.65
 1 3 -3 1.22 0.62
 -1 3 3 0.61 0.65
 -1 3 3 2.23 1.08
 1 -3 -3 -0.55 1.08
 -1 -3 3 1.06 0.81
 -1 3 2 21.45 1.17
 -1 -3 2 20.69 1.16
 1 3 -2 20.88 1.12
 1 -3 -2 17.46 1.61
 -1 3 2 19.08 1.59
 -1 -3 2 20.97 1.51
 -1 -3 1 -0.48 0.92
 1 -3 -1 1.14 1.01
 -1 3 1 0.51 0.58
 -1 -3 1 1.19 0.64
 1 3 -1 0.32 0.6
 -1 3 1 0.95 0.95
 -1 -3 0 127.53 5.43
 1 -3 0 123.15 5.32
 -1 3 0 126.57 4.92
 1 3 0 124.51 4.95
 -1 3 -1 7.81 0.67
 -1 -3 -1 9.34 1.29
 1 3 1 7.9 0.79
 -1 3 -2 42.11 1.83
 -1 -3 -2 44.18 2.48
 1 3 2 42.9 1.93
 -1 3 -3 7.36 0.66
 -1 -3 -3 8.3 1.37
 1 3 3 8.37 0.83
 1 -3 3 8.65 0.8
 1 -3 4 171.39 6.5
 -1 3 -4 164.64 6.45
 -1 -3 -5 51.59 2.93
 -1 -3 -5 49.45 2.23
 -1 -3 -5 54.1 2.35
 -1 -3 -5 52.19 2.19
 1 -3 5 53.52 2.22
 -1 -3 -5 50.04 2.26
 1 -3 6 646.12 24.49
 -1 -3 -6 677.45 24.53
 1 -3 6 626.77 24.51
 1 -3 6 642.21 24.48
 -1 -3 -6 667.48 24.5
 -1 -3 -6 654.77 24.48
 1 3 6 641.34 24.49
 1 -3 7 0.69 1.09
 -1 -3 -7 0.7 0.61
 -1 -3 -7 0.85 0.82
 1 -3 7 0.68 3.28
 -1 -3 -7 -0.03 1.63
 -1 -3 -7 0.1 0.48
 1 -3 7 0.61 0.5
 1 -3 7 1.35 0.53
 1 -3 7 0.82 1.01
 1 3 7 0.63 0.56
 1 -3 8 3.47 1.13
 -1 -3 -8 3.35 0.81
 1 -3 8 4.53 1.1
 1 -3 8 3.84 0.6
 -1 -3 -8 2.89 0.57
 1 3 8 4.89 1.09
 1 3 8 3.95 0.69
 -1 -3 -8 3.58 0.72
 1 -3 8 3.6 1.12
 1 -3 8 5 4.87
 1 -3 8 3.19 4.49
 1 -3 8 3.96 1.09
 1 -3 9 3.66 1.15
 1 3 9 4.72 1.14
 -1 -3 -9 3.56 0.61
 -1 -3 -9 5.24 0.75
 1 -3 9 2.31 4.97
 1 -3 9 4.39 1.09
 1 3 9 4.57 0.71
 1 -3 9 4.41 1.15
 1 -3 9 4.61 1.18
 1 3 10 0.41 1.12
 -1 -3 -10 1.56 0.68
 1 3 10 0.4 0.62
 1 -3 10 1.16 1.13
 1 -3 10 0.65 1.17
 -1 -3 -10 0.31 0.52
 1 -3 10 -1.05 4.72
 1 -3 10 1.38 1.07
 1 3 11 0.07 0.64
 -1 -3 -11 0.66 0.73
 1 -3 11 1.77 3.21
 1 -3 11 0.5 1.21
 -1 -3 -11 0.1 0.5
 1 3 11 1.02 1.2
 1 -3 11 0.71 1.11
 1 -3 12 0.69 1.29
 -1 -3 -12 -0.48 0.7
 1 3 12 0.5 1.19
 1 3 12 -0.48 0.72
 1 -3 12 -0.03 1.25
 1 -3 12 -0.48 1.97
 1 -3 12 -0.15 1.11
 1 3 13 9.63 2.29
 1 -3 13 8.73 1.43
 1 -3 13 8.61 1.25
 -1 -3 -13 8.29 0.92
 1 3 13 9.62 1.37
 1 -3 13 9.73 1.43
 1 3 13 8.79 0.95
 1 -3 13 8.34 0.98
 1 -3 14 33.24 1.98
 1 -3 14 35.51 2.14
 1 3 14 34.97 3.52
 1 -3 14 36.61 1.88
 1 -3 14 34.93 2.16
 -1 -3 -14 33.62 1.87
 1 -3 14 36.61 2.09
 1 3 14 36.18 1.85
 1 3 14 37.88 2.09
 1 3 15 101.31 4.46
 1 3 15 107.89 8.55
 1 3 15 104.39 4.4
 -1 -3 -15 104.5 4.4
 1 -3 15 99.66 4.39
 1 -3 15 107.51 4.4
 1 -3 15 99.93 4.5
 1 -3 15 105.59 4.49
 1 -3 15 108.16 4.46
 1 -3 15 106.56 4.45
 1 3 15 106.82 4.47
 -1 -3 -16 23.4 1.49
 1 -3 16 26.42 1.86
 1 3 16 21.39 12.99
 1 -3 16 21.29 1.49
 1 3 16 22.32 1.79
 1 -3 16 22.65 1.82
 1 -3 16 25.09 1.74
 1 -3 16 22.39 1.85
 1 -3 16 23.96 1.66
 1 3 16 22.98 1.48
 1 3 16 23.72 1.86
 1 -3 17 12.01 1.39
 1 3 17 10.02 1.57
 1 -3 17 9.41 1.14
 1 -3 17 13.21 1.57
 -1 -3 -17 10.32 1.09
 1 -3 17 12.58 1.44
 1 -3 17 12.42 1.56
 1 3 17 10.79 1.06
 1 -3 17 12.61 1.58
 -1 3 -17 10.41 1.04
 1 -3 18 10.21 1.41
 -1 -3 -18 9.81 1.04
 1 3 18 8.86 1.49
 -1 3 -18 8.87 0.97
 1 -3 18 10.33 1.51
 1 -3 18 9.17 1.1
 1 -3 18 9.24 1.57
 1 -3 18 11.97 1.56
 -1 3 -19 -0.09 0.68
 1 -3 19 0.93 1.37
 1 -3 19 0.2 1.34
 1 -3 19 -0.38 1.25
 1 3 19 0.02 1.34
 1 -3 19 0.22 0.79
 1 -3 19 -1.02 1.44
 -1 -3 -19 -0.82 0.79
 1 3 20 5.57 1.34
 1 -3 20 5.8 1.41
 -1 3 -20 5.51 0.79
 -1 -3 -20 4.71 0.82
 1 -3 20 6.64 1.31
 1 -3 20 4.87 1.35
 1 3 20 5.94 0.85
 1 3 21 0.34 1.21
 1 -3 21 0.7 1.17
 1 -3 21 1.02 1.2
 1 3 21 0.85 0.67
 1 -3 21 -0.07 1.26
 -1 -3 -21 0.51 0.66
 1 -3 22 5.61 1.11
 1 -3 22 6.1 1.12
 1 3 22 5.41 0.71
 1 -3 22 5.84 1.22
 1 -3 23 2.66 1
 1 3 23 2.76 0.52
 1 -3 23 2.62 0.95
 -1 -5 20 0.5 0.94
 -1 5 20 0.09 0.49
 -1 -5 20 -0.29 0.97
 1 5 -20 0.14 0.47
 -1 -5 20 -0.03 0.52
 -1 -5 19 4.24 0.7
 -1 -5 19 4.84 1.17
 -1 5 19 8.11 10.59
 1 5 -19 4.28 0.67
 -1 -5 19 5.12 1.1
 -1 5 19 4.22 0.65
 -1 5 18 1.64 13.01
 -1 -5 18 0.43 1.13
 -1 -5 18 0.69 0.69
 -1 -5 18 -0.08 1.06
 -1 -5 18 0.37 1.21
 -1 5 18 0.02 0.6
 -1 -5 17 2.98 1.13
 -1 -5 17 3.13 1.23
 -1 -5 17 2.48 1.31
 1 -5 -17 1.71 0.61
 -1 5 17 3.22 0.72
 -1 5 16 3.12 0.76
 -1 -5 16 5.12 1.4
 -1 -5 16 3.4 1.28
 -1 -5 16 3.24 1.15
 -1 5 16 5.8 6.74
 1 -5 -16 1.86 0.66
 -1 -5 15 1.4 1.19
 -1 5 15 0.49 0.76
 -1 -5 15 0.81 1.28
 -1 -5 15 0.1 2.79
 -1 5 15 0.95 2.25
 -1 -5 15 -0.63 1.4
 1 -5 -15 1.31 0.63
 -1 -5 14 5.84 1.39
 -1 5 14 5.06 0.87
 -1 -5 14 6.43 1.46
 -1 -5 14 5.31 1.23
 1 -5 -14 4.96 0.8
 1 -5 -13 0.54 0.7
 -1 -5 13 1.4 1.19
 1 -5 -13 -0.59 1.93
 -1 5 13 0.76 0.75
 -1 -5 13 0.25 1.32
 -1 -5 13 -0.2 2.61
 -1 5 12 7.05 0.89
 1 -5 -12 7.21 1.15
 1 -5 -12 6.71 0.9
 -1 -5 12 7.64 1.43
 1 -5 -12 8.02 2
 -1 -5 12 8.04 1.27
 1 -5 -11 22.79 1.55
 1 -5 -11 17.67 1.29
 -1 5 11 18.36 1.26
 -1 -5 11 22.42 1.69
 1 -5 -11 24.78 2.23
 -1 -5 11 22.97 1.58
 -1 -5 10 9.35 1.41
 1 -5 -10 9.09 0.99
 -1 5 10 8.56 0.9
 -1 -5 10 9.27 0.99
 1 -5 -10 9.53 1.29
 1 -5 -10 10.96 2.02
 -1 -5 10 9.84 1.32
 1 -5 -9 1.52 0.72
 -1 -5 9 3.17 1.2
 -1 -5 9 -2.23 13.08
 1 -5 -9 3.17 1.92
 -1 -5 9 2.94 1.28
 -1 -5 9 1.86 0.75
 1 -5 -9 2.59 1.17
 -1 -5 8 4.16 8.13
 -1 -5 8 0.13 0.67
 1 -5 -8 0.71 1.92
 1 -5 -8 0.13 0.68
 -1 -5 8 0.22 1.18
 1 -5 -8 0.46 1.18
 1 -5 -7 9.98 1.03
 1 -5 -7 11.97 1.37
 1 -5 -7 12.43 2.02
 1 -5 -7 12.24 1.3
 -1 -5 7 13.23 4.85
 -1 -5 7 11.56 0.97
 -1 -5 7 8.65 10.51
 -1 -5 6 2.15 1.15
 1 -5 -6 1.88 1.21
 1 -5 -6 2.05 0.71
 1 -5 -6 2.57 1.12
 1 -5 -6 2.43 1.84
 -1 -5 6 2.45 0.67
 -1 -5 6 2.41 2.36
 -1 -5 5 2.4 1.4
 1 -5 -5 1.86 1.18
 1 -5 -5 2.45 0.72
 -1 -5 5 3.65 18.15
 1 -5 -5 1.99 1.84
 -1 -5 5 2.04 0.66
 1 -5 -4 1.7 1.18
 1 -5 -4 1.16 1.82
 -1 -5 4 1.06 1.35
 -1 -5 3 11.63 6.3
 1 -5 -3 14.32 1.34
 -1 -5 3 15.08 1.51
 1 -5 -3 15.61 2.04
 1 -5 -2 3.66 0.68
 -1 -5 2 4.27 3.92
 -1 -5 2 3.7 3.94
 -1 -5 2 3.79 1.3
 1 -5 -2 4.2 1.12
 1 -5 -2 4.23 1.87
 1 -5 -1 27.97 1.67
 -1 -5 1 24.12 1.76
 -1 -5 1 28.31 2.33
 -1 -5 1 24.46 2.3
 1 -5 -1 28.07 1.65
 -1 -5 1 25.68 1.62
 1 -5 0 16.81 1.34
 -1 -5 0 16.4 1.33
 1 -5 0 17.33 1.39
 -1 -5 0 16.48 1.54
 -1 -5 0 18.76 1.45
 -1 -5 0 16.61 2.06
 1 -5 0 15.56 1.49
 1 -5 1 100.1 4.17
 1 -5 1 104.17 4.17
 1 -5 1 102.46 4.47
 1 -5 1 104.35 4.18
 1 -5 1 96.26 4.27
 -1 -5 -1 102.49 4.48
 -1 -5 -1 98.1 4.28
 -1 -5 -1 102.53 4.25
 1 -5 2 31.42 1.65
 1 -5 2 26.19 2.27
 -1 -5 -2 27.58 1.85
 1 -5 2 27.38 1.85
 -1 -5 -2 29.05 2.3
 1 -5 2 30.31 1.7
 -1 -5 -2 26.83 1.69
 1 -5 3 1.08 0.93
 -1 -5 -3 1.68 1.84
 -1 -5 -3 1.91 1.26
 1 -5 3 1.41 1.12
 -1 -5 -3 1.23 1
 1 -5 3 1.45 1.24
 1 -5 3 0.08 1.9
 -1 -5 -3 2.05 1.14
 -1 -5 -4 13.66 1.49
 -1 -5 -4 13.74 1.26
 1 -5 4 17.06 4.12
 -1 -5 -4 14.24 1.99
 1 -5 4 14.61 1.15
 1 -5 4 14.17 1.57
 -1 -5 -4 14.18 1.39
 1 -5 4 14.65 1.36
 1 -5 5 3.92 2.6
 1 -5 5 5.34 1.23
 1 -5 5 3.5 1.45
 -1 -5 -5 3.25 1.2
 -1 -5 -5 3.62 1.91
 1 -5 5 -3.27 13.09
 -1 -5 -5 2.94 1.07
 1 -5 6 0.46 0.56
 1 -5 6 10.58 18.7
 1 -5 6 0.46 1.16
 1 -5 6 0.91 2.53
 -1 -5 -6 0.58 1.86
 -1 -5 -6 0.22 1.05
 -1 -5 -6 -0.12 1.16
 -1 -5 -7 1.59 0.72
 1 -5 7 3.53 1.24
 -1 -5 -7 2.43 1.21
 1 -5 7 2.01 5.67
 1 -5 7 1.72 1.2
 1 -5 7 2.2 0.65
 -1 -5 -7 1.97 1.89
 1 -5 8 8.44 10.27
 1 -5 8 0.2 7.71
 -1 -5 -8 0.28 1.13
 -1 -5 -8 0.64 1.91
 -1 -5 -8 1.6 0.75
 1 -5 8 0.77 1.18
 1 -5 8 1.11 1.25
 1 -5 9 0.79 1.31
 -1 -5 -9 1.5 1.91
 -1 -5 -9 0.03 1.36
 -1 -5 -9 0.7 0.73
 1 -5 10 0.61 9.58
 1 5 10 2.74 1.87
 1 5 10 0.68 0.7
 1 -5 10 -10.07 13.76
 -1 -5 -10 1.64 2.51
 1 -5 10 1.38 1.3
 -1 -5 -10 1.03 0.72
 -1 -5 -11 1.65 0.73
 1 -5 11 1.29 1.19
 1 5 11 1.3 1.94
 1 5 11 1.4 0.73
 1 -5 11 1.44 1.34
 1 -5 11 -1.15 8.55
 1 -5 11 1.8 1.39
 -1 -5 -11 1.01 4.4
 1 -5 12 0.63 1.33
 1 -5 12 5.33 6.06
 1 5 12 0.09 2.07
 1 -5 12 0.15 0.85
 -1 -5 -12 1.1 0.68
 1 -5 12 2.33 1.18
 1 5 12 0.24 0.71
 1 -5 12 0.11 1.39
 1 -5 13 3.92 0.91
 1 5 13 6.36 0.89
 1 -5 13 5.85 1.39
 1 -5 13 4.44 1.44
 1 -5 13 5.74 1.26
 1 -5 14 3.35 1.35
 1 -5 14 3.01 1.35
 1 -5 14 3.45 0.9
 1 -5 14 2.53 1.22
 1 5 14 2.7 0.8
 1 -5 15 3.72 0.87
 1 5 15 10.28 12.85
 1 -5 15 3.71 1.36
 1 -5 15 3.01 1.22
 1 5 15 2.16 0.79
 1 -5 15 2.87 1.37
 1 -5 16 2.22 1.33
 1 -5 16 2.15 1.18
 1 5 16 2.8 0.77
 1 -5 16 2.55 0.82
 1 -5 16 1.57 1.26
 1 -5 17 5.62 0.85
 1 5 17 6.02 0.8
 1 -5 17 5.81 1.29
 1 -5 17 7.12 1.19
 1 5 17 13.71 14.82
 1 -5 17 6.59 1.26
 1 5 18 4.1 0.7
 1 -5 18 4.25 1.15
 1 -5 18 4.29 1.08
 1 -5 18 3.94 0.72
 1 -5 18 3.76 1.17
 -1 5 -18 3.3 0.63
 1 -5 19 1.36 1.05
 1 5 19 1.01 0.57
 1 5 20 -0.28 0.46
 -1 -5 -20 0.02 0.71
 -1 -7 14 0.01 0.9
 1 -7 -14 0.09 0.95
 -1 7 14 2.08 8.93
 -1 -7 13 0.68 0.52
 -1 7 13 0.32 8.24
 1 -7 -13 0.13 1.02
 -1 -7 13 -1.53 2.32
 1 -7 -12 0.15 1.07
 -1 7 12 -0.59 6.01
 -1 -7 12 0.01 0.56
 -1 -7 11 -0.51 0.6
 1 -7 -11 1.15 2.48
 -1 -7 11 0.62 2.67
 1 -7 -11 0.63 1.14
 -1 7 11 -3.3 3.37
 -1 -7 11 -0.73 1.05
 1 7 -10 17.47 19.2
 1 -7 -10 2.33 1.21
 -1 7 10 1.74 1.72
 1 -7 -10 3.1 1.84
 -1 -7 10 3.95 1.12
 -1 -7 10 2.95 0.67
 -1 -7 10 8.83 14.37
 1 7 -9 -13.93 27.43
 -1 -7 9 0.05 1.09
 -1 -7 9 4.67 18.27
 -1 7 9 0.8 1.3
 1 -7 -9 1.35 1.79
 1 -7 -9 0.15 1.19
 -1 7 8 0.84 1.32
 1 -7 -8 -1.51 8.52
 1 -7 -8 1.62 1.26
 1 -7 -8 2.47 1.83
 -1 -7 8 2.52 1.18
 -1 -7 7 -0.54 1.15
 -1 7 7 0.6 1.31
 -1 -7 7 12.51 15.32
 1 -7 -7 0.58 1.85
 1 -7 -7 -0.2 7.62
 1 -7 -7 -0.26 1.21
 -1 7 6 0.36 1.3
 -1 -7 6 13.43 14.87
 1 -7 -6 0.09 1.93
 1 -7 -6 5.85 6.97
 -1 -7 6 0.77 1.19
 -1 -7 6 19.01 8.75
 -1 -7 5 2.18 1.2
 -1 -7 5 6.03 11.55
 1 -7 -5 3.12 1.99
 1 -7 -5 3.62 6.79
 -1 7 5 1.59 1.26
 -1 -7 5 5.96 7.62
 1 -7 -4 -0.02 2.34
 -1 -7 4 -0.17 1.14
 -1 -7 4 0.39 5.69
 -1 -7 3 1.26 1.16
 1 -7 -3 1.02 3.53
 -1 -7 3 0.89 3.27
 1 -7 -3 -2.71 7.76
 1 -7 -2 2.67 6.49
 -1 -7 2 -0.95 1.79
 1 -7 -2 1.5 8.62
 -1 -7 2 0.41 1.12
 -1 -7 1 0.58 1.43
 1 -7 -1 3.66 10.08
 -1 -7 1 12.07 19.67
 1 -7 0 9.89 1.54
 -1 -7 0 10.04 20.86
 -1 -7 0 12.03 1.57
 1 -7 1 0.69 1.43
 -1 -7 -1 0.41 1.37
 1 -7 1 4.28 20.45
 -1 -7 -1 18.81 21.01
 1 -7 2 2.91 1.75
 -1 -7 -2 3.18 20.31
 1 -7 2 -2.21 21.88
 -1 -7 -2 4.2 1.36
 -1 -7 -3 3.19 1.38
 -1 -7 -3 8.77 19.05
 1 -7 3 21.73 20.73
 1 -7 3 3.72 3.16
 -1 -7 -4 0.75 1.31
 1 -7 4 1.5 6.21
 1 -7 4 -2.45 16.81
 -1 -7 -4 -0.32 17.04
 1 -7 4 0.72 1.13
 1 -7 5 8.64 11.4
 1 -7 5 3.25 1.19
 1 -7 5 11.97 8.3
 -1 -7 -5 2.06 1.29
 1 -7 6 -8.62 11.79
 -1 -7 -6 5.09 1.08
 1 7 6 0.42 2.48
 -1 -7 -6 3.51 1.28
 1 -7 6 2.93 1.2
 1 -7 6 9.72 9.34
 -1 -7 -6 6.01 15.08
 1 -7 7 -4.49 14.68
 -1 -7 -7 0.25 1.27
 -1 -7 -7 0.7 0.99
 1 7 7 -3.05 3.49
 1 -7 7 -0.08 1.13
 1 -7 7 10.09 9.87
 -1 -7 -7 2.6 14.52
 -1 -7 -8 0.88 1.25
 1 -7 8 0.85 1.17
 1 -7 8 2.42 9.59
 1 7 8 -6.78 4.9
 -1 -7 -8 -0.46 14.65
 -1 -7 -8 0.58 1
 1 -7 9 3.03 1.14
 -1 -7 -9 1.54 1.19
 1 7 9 -2.53 6.82
 -1 -7 -9 1.77 1
 1 -7 10 0.78 1.13
 1 -7 10 2.2 5.51
 -1 -7 -10 0.89 0.96
 -1 -7 -10 0.12 1.16
 -1 -7 -11 1.2 0.91
 1 7 11 -5.65 10.46
 1 -7 11 1.48 1.07
 -1 -7 -11 0.53 1.1
 -1 -7 -12 1.78 0.88
 -1 -7 -12 0.89 1.07
 1 -7 12 0.67 1.03
 1 7 12 3.71 10.73
 1 -7 13 -0.38 0.96
 1 7 13 -1.78 9.63
 -1 -7 -13 1.04 0.81
 -1 -7 -13 -0.15 0.99
 1 -7 13 -2.82 2.39
 1 7 14 -8.49 7.17
 2 0 -25 0.46 0.5
 2 0 -24 3.81 0.67
 -2 0 24 3.39 1.1
 -2 0 23 1 1.2
 2 0 -23 -0.02 0.69
 -2 0 22 3.88 1.3
 2 0 -22 1.73 0.79
 -2 0 21 0.09 1.31
 -2 0 21 -0.55 1.32
 -2 0 21 0.6 1.28
 2 0 -21 0.13 0.8
 -2 0 20 22.26 1.33
 -2 0 20 21.91 1.73
 -2 0 20 20.56 1.76
 2 0 -20 20.87 1.45
 -2 0 20 22.58 1.77
 -2 0 20 19.88 1.26
 -2 0 19 -0.66 1.29
 -2 0 19 -0.53 1.35
 2 0 -19 0.39 0.88
 -2 0 19 0.07 0.66
 -2 0 19 0.62 1.33
 -2 0 19 -0.33 0.73
 -2 0 18 3.8 1.35
 -2 0 18 4.4 1.39
 2 0 -18 3.83 0.98
 -2 0 18 4.8 1.38
 -2 0 18 4.67 0.84
 -2 0 18 5.82 1.41
 -2 0 17 -0.82 1.36
 -2 0 17 -0.6 1.3
 -2 0 17 -0.12 0.74
 -2 0 17 0.4 1.29
 2 0 -17 -0.13 0.78
 2 0 -16 14.11 1.17
 -2 0 16 15.48 1.12
 -2 0 16 14.15 1.54
 -2 0 16 15.21 1.52
 -2 0 16 14.7 1.52
 -2 0 15 0.19 0.67
 2 0 -15 -0.07 0.72
 -2 0 15 -0.09 1.24
 -2 0 15 -0.4 1.22
 -2 0 15 0.64 1.25
 2 0 -14 0.92 0.71
 -2 0 14 -0.19 1.2
 -2 0 14 0.9 0.67
 -2 0 14 0.82 1.2
 -2 0 14 0.51 1.16
 -2 0 13 -0.15 1.17
 2 0 -13 0.17 0.62
 -2 0 13 -0.12 1.15
 -2 0 13 -0.03 1.16
 2 0 -13 -0.67 0.66
 -2 0 12 15.07 1.37
 -2 0 12 13.41 1.06
 -2 0 12 11.87 1.32
 2 0 -12 15.14 0.95
 2 0 -12 14.19 0.92
 -2 0 12 13.56 1.15
 -2 0 11 -0.21 0.73
 2 0 -11 -0.12 0.59
 -2 0 11 -0.06 1.11
 -2 0 11 -0.29 0.8
 2 0 -11 0.02 0.56
 -2 0 11 0.34 0.9
 -2 0 11 0.47 1.11
 -2 0 11 -0.09 0.68
 -2 0 10 1957.41 72.68
 2 0 -10 1933 72.44
 -2 0 10 1905.31 72.72
 -2 0 10 1942.65 72.49
 -2 0 9 0.01 0.62
 -2 0 9 -0.06 0.76
 -2 0 9 0.71 0.82
 -2 0 8 78.58 3.12
 -2 0 8 74.89 3.34
 -2 0 8 76.35 3.32
 -2 0 7 -0.08 0.71
 -2 0 7 -0.25 0.75
 2 0 -7 0.23 0.52
 -2 0 6 306.97 11.78
 -2 0 6 308.98 11.78
 2 0 -6 305.2 11.6
 -2 0 5 0.73 0.65
 -2 0 5 -0.12 0.48
 2 0 -5 0.26 0.47
 -2 0 4 33.37 1.39
 2 0 -4 31.26 1.37
 -2 0 4 31.45 1.56
 -2 0 3 -0.03 0.37
 2 0 -3 -0.19 0.4
 2 0 -2 0.31 0.61
 -2 0 2 0.45 0.34
 2 0 -1 0.48 0.59
 -2 0 1 -0.01 0.63
 -2 0 1 -0.07 0.3
 -2 0 0 -0.07 0.62
 -2 0 0 0.12 0.22
 2 0 0 0.1 0.24
 2 0 0 -0.14 0.55
 -2 0 -1 0.01 0.21
 2 0 1 0.05 0.21
 -2 0 -2 15.21 0.59
 2 0 2 12.45 0.59
 2 0 3 0.02 0.22
 2 0 4 0.79 0.3
 2 0 5 0.11 0.24
 2 0 5 -0.16 0.32
 2 0 6 209.89 8.9
 2 0 6 255.17 8.87
 2 0 7 0.04 0.39
 -2 0 -7 0.33 0.71
 2 0 7 -0.35 0.35
 2 0 8 349.05 12.93
 -2 0 -8 336.97 13.23
 2 0 8 338.39 12.95
 2 0 9 0.43 0.41
 2 0 9 0.34 0.48
 2 0 10 1131.93 43.84
 2 0 10 1177.14 43.94
 2 0 10 1205.44 43.88
 2 0 10 1154.01 43.92
 2 0 10 1195.4 43.9
 2 0 11 -0.31 1.03
 2 0 11 0.38 0.57
 2 0 11 0.22 0.55
 -2 0 -11 0.01 0.52
 2 0 11 -0.26 1.14
 2 0 11 0.22 1.15
 2 0 12 0.23 1.18
 2 0 12 0.33 1.05
 2 0 12 1.11 0.58
 2 0 12 1.06 1.18
 2 0 12 0.84 0.63
 -2 0 -12 0.74 0.57
 2 0 12 -0.01 1.15
 2 0 13 -0.34 1.06
 2 0 13 0.14 1.21
 2 0 13 0.12 1.22
 2 0 13 0.01 0.59
 2 0 13 -0.89 1.21
 -2 0 -13 0.04 0.6
 2 0 14 1.34 0.64
 -2 0 -14 1.44 0.65
 2 0 14 1.94 1.26
 2 0 14 1.19 1.12
 -2 0 -15 -0.08 0.64
 2 0 15 0.02 0.63
 2 0 15 0.02 1.3
 -2 0 -16 5.53 0.76
 2 0 16 5.13 0.77
 2 0 16 4.3 1.38
 2 0 17 0.05 0.67
 -2 0 -17 -0.02 0.65
 2 0 17 -0.02 1.36
 2 0 18 0.23 0.68
 2 0 18 0.66 1.38
 -2 0 -18 0.11 0.68
 -2 0 -19 0.09 0.7
 2 0 19 0.77 1.37
 2 0 20 21.58 1.77
 2 0 21 0.39 1.36
 2 0 22 1.61 1.25
 2 0 22 1.47 1.33
 2 0 22 2.29 1.28
 2 0 23 -1.09 1.21
 2 0 23 -0.4 1.15
 2 0 23 -0.54 1.18
 2 0 24 1.83 1.02
 2 0 24 1.65 1.02
 2 0 24 1.71 1.08
 -2 -2 24 0.23 1.02
 -2 -2 24 -0.05 0.92
 2 2 -24 -0.04 0.52
 -2 -2 24 0.73 0.95
 -2 2 24 0.38 1.01
 2 -2 -24 -0.13 0.55
 -2 2 24 -0.1 0.47
 -2 -2 23 0.14 1.14
 2 2 -23 0.2 0.63
 -2 -2 23 0.01 1.03
 -2 2 23 -0.52 1.15
 2 -2 -23 -0.13 0.65
 -2 2 23 0.25 0.56
 -2 -2 22 0.64 1.13
 2 2 -22 1.05 0.73
 -2 -2 22 0.81 1.28
 2 -2 -22 0.06 0.73
 -2 -2 22 1.46 1.25
 -2 2 22 0.96 0.67
 -2 -2 21 2.66 1.39
 -2 -2 21 1.99 0.7
 -2 -2 21 3.45 1.22
 2 -2 -21 2.19 0.84
 -2 2 21 2.37 1.22
 -2 2 21 2.38 1.33
 2 2 -21 3.89 0.82
 -2 -2 21 2.58 1.32
 -2 2 21 2.68 0.75
 -2 -2 20 1.49 1.38
 -2 -2 20 1.34 0.76
 2 -2 -20 1.21 0.87
 -2 2 20 2.04 1.28
 2 2 -20 0.83 0.79
 -2 -2 20 0.04 1.24
 -2 2 20 1.19 0.74
 -2 -2 20 1.2 1.34
 -2 2 20 1.73 1.38
 -2 -2 19 5.69 0.89
 2 2 -19 6.13 0.96
 -2 2 19 5.77 1.31
 -2 -2 19 5.02 1.39
 -2 2 19 5.83 1.45
 -2 2 19 5.54 0.94
 2 -2 -19 5.17 1
 -2 -2 19 5.46 1.47
 -2 -2 19 4.35 0.92
 -2 -2 18 2.78 0.84
 -2 -2 18 1.97 1.42
 -2 -2 18 4.26 1.38
 2 2 -18 1.9 0.9
 -2 2 18 2.75 1.23
 2 -2 -18 2.92 0.98
 -2 -2 18 3.25 0.9
 -2 2 18 3.24 1.45
 -2 2 17 6.65 1.43
 -2 -2 17 7.51 0.95
 -2 -2 17 6.84 1.49
 -2 -2 17 7.69 1.03
 -2 -2 17 8.19 1.45
 2 2 -17 7.06 0.97
 -2 2 17 6.16 1.31
 2 -2 -17 5.91 0.98
 -2 -2 16 0.8 1.34
 -2 2 16 0.29 1.32
 -2 2 16 -0.14 1.24
 -2 -2 16 -0.09 0.84
 2 -2 -16 0.36 0.83
 -2 -2 16 0.17 0.7
 2 -2 -15 104.79 4.58
 -2 2 15 112.98 4.61
 -2 -2 15 109.79 4.56
 -2 -2 15 108.57 4.61
 -2 2 15 110.96 4.6
 -2 -2 14 9.11 1.37
 -2 -2 14 9.04 0.94
 2 -2 -14 8.8 0.96
 -2 2 14 9.1 1.32
 2 -2 -13 4.17 0.83
 -2 -2 13 3.57 1.27
 -2 -2 13 3.97 0.81
 -2 2 13 4.97 1.24
 -2 -2 13 2.97 2.8
 2 -2 -13 3.81 0.8
 2 -2 -12 -0.03 0.69
 2 2 -12 -0.89 2.05
 -2 -2 12 -0.18 1.19
 -2 -2 12 0.67 0.68
 -2 -2 12 0.66 0.96
 -2 -2 12 1.47 2.74
 2 -2 -12 0.15 0.7
 2 -2 -11 1.58 0.71
 2 2 -11 3.7 2.46
 -2 -2 11 1.09 0.59
 -2 -2 11 2.49 2.66
 -2 -2 11 1.26 0.67
 -2 -2 11 2.07 1.19
 2 -2 -11 1.37 0.68
 -2 -2 11 1.34 0.99
 -2 -2 10 -0.23 0.59
 -2 -2 10 0.46 1.13
 -2 -2 10 0.49 0.64
 -2 -2 10 -0.62 1.12
 2 -2 -10 -0.31 0.68
 2 -2 -10 0.09 0.64
 -2 -2 9 4.81 0.73
 -2 -2 9 4.36 1.5
 -2 2 9 3.95 1.17
 2 -2 -9 5.14 0.72
 -2 -2 9 4.65 1.14
 -2 -2 9 4.19 0.63
 2 2 -8 22.73 1.22
 -2 -2 8 20.85 1.34
 -2 2 8 21.52 1.26
 2 -2 -8 24.71 1.22
 -2 -2 8 22.49 1.18
 -2 2 8 21.02 1.73
 -2 -2 8 24.63 1.25
 -2 -2 8 25.03 2.19
 -2 -2 7 1.46 0.45
 2 2 -7 1.38 0.58
 -2 2 7 2 1.04
 -2 -2 7 2.54 0.63
 -2 2 7 2.01 0.63
 2 2 -6 49.33 2.15
 -2 -2 6 53.53 2.17
 -2 2 6 50.61 2.16
 2 2 -6 48.9 2.16
 2 2 -5 177.09 6.64
 2 2 -5 171.25 6.7
 -2 2 5 169.28 7.13
 -2 -2 5 167.61 6.62
 2 2 -4 187.51 7.14
 -2 2 4 187.46 7.59
 2 2 -4 182.08 7.28
 2 2 -3 0.39 0.6
 -2 2 3 0.41 1.01
 -2 -2 2 205.72 7.87
 -2 2 2 210.82 7.89
 -2 2 2 194.42 8.23
 2 2 -2 205.73 7.87
 -2 -2 1 226.16 8.67
 -2 2 1 223.86 8.65
 2 2 -1 236.68 8.67
 -2 2 1 215.71 8.97
 -2 2 0 0.4 0.37
 -2 2 0 0.18 0.61
 2 2 0 0.27 0.51
 -2 -2 0 0.25 0.48
 -2 2 -1 146.46 6.05
 -2 -2 -1 151.2 5.83
 -2 2 -1 151.23 5.74
 -2 2 -2 282.55 10.85
 -2 2 -2 281.72 10.82
 -2 -2 -2 296.65 10.71
 -2 2 -2 273.52 10.57
 2 2 3 6.57 0.67
 -2 2 -3 5.83 0.75
 -2 2 -3 6.06 0.38
 -2 2 -3 5.76 0.8
 -2 -2 -3 6.54 1.07
 -2 2 -4 92.9 3.64
 -2 2 -4 95.35 3.85
 -2 -2 -4 104.91 4.34
 -2 2 -4 92.93 3.87
 2 2 4 102.39 3.82
 2 2 5 132.93 5.02
 -2 -2 -5 142.11 5.62
 2 -2 5 127.15 4.88
 -2 2 -5 132.33 4.85
 -2 -2 -6 0.4 1.04
 2 -2 6 0.23 0.34
 2 2 6 -0.33 0.57
 2 -2 7 1.15 0.32
 2 2 7 1.96 0.55
 2 2 7 1.46 0.62
 -2 -2 -7 1.97 1.11
 2 2 8 17.89 1.33
 -2 -2 -8 16.18 1.58
 2 2 8 15.85 1.05
 2 -2 8 17.84 1.31
 2 -2 8 12.66 0.69
 2 -2 8 16.95 1.26
 2 2 8 17.33 0.96
 2 -2 9 3.93 1.06
 2 -2 9 4.81 1.16
 2 -2 9 4.38 1.15
 2 2 9 3.85 1.16
 2 2 9 4.45 0.67
 2 2 9 3.36 1.58
 2 -2 9 3.29 1.82
 2 -2 9 3.41 1.15
 -2 -2 -9 3.6 0.61
 2 2 9 4.8 1.21
 2 2 10 0.29 1.15
 2 -2 10 -0.48 1.01
 2 2 10 0.08 1.81
 2 -2 10 -0.24 1.12
 2 2 10 0.35 1.22
 -2 -2 -10 0.18 0.58
 2 -2 10 -0.11 1.16
 2 2 10 0.16 0.62
 2 -2 10 0.53 1.17
 2 -2 10 0.01 1.14
 -2 -2 -11 0.39 0.63
 2 -2 11 0.44 1.2
 2 -2 11 0.92 1.05
 2 2 11 0.9 1.17
 2 2 11 0.75 0.63
 2 2 11 -0.12 1.24
 2 -2 11 0.4 0.64
 2 2 11 0.68 2.13
 2 -2 11 -0.31 1.17
 2 2 11 0.36 0.67
 2 -2 11 1.17 1.23
 2 -2 11 0.52 1.2
 2 -2 12 -0.2 1.21
 2 -2 12 -0.45 1.15
 2 2 12 -0.48 1.26
 2 -2 12 0.19 1.22
 2 -2 12 0.11 1.09
 2 2 12 -2.16 3.07
 2 -2 12 0.89 0.67
 2 -2 12 -0.2 1.26
 2 -2 12 0.74 2.71
 -2 -2 -12 0.06 0.64
 2 2 13 -0.13 5.88
 2 -2 13 -0.08 1.26
 2 2 13 0.63 1.24
 2 -2 13 0.25 1.32
 2 -2 13 -0.17 1.07
 2 -2 13 1.37 1.21
 2 -2 13 0.15 0.74
 -2 -2 -13 0.33 0.66
 2 -2 13 0.99 1.31
 2 -2 14 9.64 1.33
 2 2 14 10.25 1.4
 2 -2 14 9.15 1.01
 2 -2 14 9.66 1.26
 2 -2 14 10.56 1.45
 2 -2 14 9.73 1.46
 -2 -2 -14 9.4 0.92
 2 -2 14 8.77 1.46
 -2 -2 -15 107.43 4.34
 2 -2 15 98.02 4.35
 2 -2 15 102.03 4.45
 2 2 15 105.47 4.37
 2 -2 15 104.89 4.52
 2 -2 15 105.32 4.37
 2 -2 15 108.41 4.44
 -2 2 -15 102.82 4.29
 2 2 15 106.81 4.48
 2 -2 16 0.36 1.27
 2 2 16 0.83 0.76
 2 -2 16 -0.06 1.17
 2 -2 16 -0.09 1.36
 2 -2 16 -0.2 1.36
 -2 2 -16 0.75 0.66
 -2 -2 -16 -0.36 0.75
 2 -2 16 0.34 0.81
 2 -2 17 3.31 0.9
 2 -2 17 5.29 1.46
 2 -2 17 3.95 1.37
 2 -2 17 4.19 1.4
 2 2 17 3.56 1.44
 2 2 17 3.95 0.86
 -2 -2 -17 4.03 0.82
 -2 2 -17 4.21 0.74
 -2 -2 -18 3.17 0.77
 2 -2 18 3.54 1.39
 2 -2 18 3.99 1.32
 2 -2 18 2.74 1.42
 2 -2 18 3.55 0.93
 2 2 18 3.46 1.43
 2 -2 18 2.38 1.39
 -2 2 -18 3.28 0.77
 2 2 18 3.74 0.85
 2 -2 18 3.64 1.5
 -2 -2 -19 3.91 0.8
 2 -2 19 5.65 1.35
 2 -2 19 6.21 1.45
 2 -2 19 5.85 1.42
 2 -2 19 6.77 1.52
 2 2 19 5.31 1.43
 2 2 19 6.2 0.9
 2 -2 20 0.86 1.28
 2 2 20 0.39 0.74
 2 2 20 1.35 1.39
 2 -2 20 -0.33 1.38
 2 -2 20 0.38 1.32
 2 -2 21 4.53 1.25
 2 2 21 3.35 1.33
 2 -2 21 2.98 1.31
 2 -2 21 3.93 1.32
 2 2 21 3.54 0.77
 2 -2 22 1.15 1.2
 2 -2 22 1.67 1.11
 2 -2 22 1.54 1.21
 2 2 22 1.81 1.23
 2 2 22 1.37 0.63
 2 2 22 0.69 1.1
 2 2 23 0.75 0.52
 2 -2 23 0.48 1.05
 2 2 23 0.57 1.11
 2 4 -22 0.49 0.48
 -2 -4 22 0.12 0.94
 -2 4 22 0.4 0.49
 -2 -4 21 1.9 0.64
 -2 -4 21 3.09 1.07
 2 4 -21 2.41 0.64
 -2 4 21 2.54 0.63
 -2 -4 20 1.26 0.69
 -2 4 20 1.36 0.7
 2 4 -20 1.37 0.64
 -2 -4 20 1.24 1.16
 2 -4 -19 0.14 0.79
 -2 4 19 0.58 1.17
 2 4 -19 0.49 0.76
 -2 -4 19 0.59 1.25
 -2 4 19 0.83 0.69
 -2 -4 19 0.75 0.72
 2 -4 -18 2.61 0.95
 2 -4 -18 2.54 0.63
 -2 4 18 2.93 1.23
 -2 -4 18 2.8 1.34
 -2 -4 18 2.95 0.84
 -2 4 18 2.24 0.81
 2 -4 -17 0.64 0.9
 -2 -4 17 0.61 1.33
 -2 4 17 1.15 1.28
 -2 4 17 3.72 3.24
 2 -4 -17 0.9 0.65
 -2 -4 17 2.35 1.26
 -2 -4 17 3.12 1.22
 -2 4 17 1.69 0.83
 -2 -4 17 1.63 0.87
 -2 -4 16 2.74 1.32
 -2 -4 16 3.73 1.22
 2 -4 -16 2.57 1.02
 -2 4 16 3.48 1.35
 -2 4 16 3.53 0.87
 -2 -4 16 2.7 1.39
 2 -4 -15 10.58 1.01
 -2 -4 15 12.22 1.56
 -2 4 15 11.89 1.47
 -2 -4 15 15.81 2.98
 2 -4 -15 11.93 1.24
 -2 -4 15 14.17 1.53
 -2 -4 15 12.64 1.42
 2 -4 -14 71.45 3.29
 2 -4 -14 65.16 3.18
 -2 -4 14 77.48 3.29
 -2 4 14 76.07 3.33
 -2 -4 14 75.61 3.38
 2 -4 -14 76.79 3.58
 -2 -4 14 72.17 4.23
 -2 -4 13 16.51 1.44
 -2 -4 13 9.75 5.75
 2 -4 -13 11.58 1.06
 -2 4 13 16.45 1.52
 2 4 -13 15.15 5.7
 -2 -4 13 16.49 1.58
 2 -4 -13 15.48 1.31
 -2 -4 13 15.98 1.16
 -2 -4 13 11.99 1.75
 2 -4 -13 15.09 2.06
 -2 -4 12 7.4 1.22
 -2 4 12 7.22 1.28
 -2 -4 12 5.24 0.87
 -2 -4 12 6.6 1.37
 -2 -4 12 5.82 0.9
 2 -4 -12 4.89 1.2
 2 -4 -12 4.77 0.78
 2 -4 -12 6.74 1.01
 2 -4 -12 5.18 1.09
 -2 -4 12 5.43 3.24
 2 -4 -12 5.95 1.92
 -2 4 11 6.96 1.26
 -2 -4 11 7.2 0.9
 -2 -4 11 7.62 1.35
 -2 -4 11 8.57 1.23
 2 -4 -11 6.16 0.99
 2 -4 -11 6.63 1.1
 -2 -4 11 7.1 0.9
 2 -4 -11 5.94 1.19
 2 -4 -11 6.62 1.88
 -2 -4 11 5.66 5.52
 -2 -4 10 5.33 6.33
 2 -4 -10 2.21 1.12
 -2 -4 10 1.8 0.69
 -2 -4 10 2.14 1.2
 -2 -4 10 2.44 0.77
 2 -4 -10 1.55 1.06
 2 -4 -10 1.99 1.86
 -2 -4 9 5.15 0.75
 2 -4 -9 4.69 0.8
 2 -4 -9 4.67 1.13
 -2 -4 9 4.57 6.06
 2 -4 -9 4.75 1.08
 -2 -4 9 11.99 10.23
 -2 -4 9 4.81 0.75
 2 -4 -9 3.6 1.82
 2 -4 -8 9 0.88
 -2 -4 8 7.55 0.82
 -2 -4 8 8.76 0.83
 2 -4 -8 8.13 0.82
 2 -4 -8 8.73 1.84
 -2 -4 8 14.86 6.76
 2 -4 -8 9.03 1.14
 -2 -4 8 10.22 5.03
 2 -4 -8 7.83 1.2
 -2 -4 7 13.08 0.95
 -2 -4 7 10.94 5.19
 2 -4 -7 12.06 0.92
 2 -4 -7 11.61 1.22
 2 -4 -7 11.28 1.27
 2 -4 -7 11.52 1.91
 -2 -4 7 8.18 3.69
 -2 -4 7 13.67 0.92
 2 -4 -7 12.69 0.95
 -2 -4 6 50.54 2.78
 2 -4 -6 52.21 2.25
 2 -4 -6 45.38 2.35
 2 -4 -6 48.3 2.77
 2 -4 -6 49.7 2.38
 2 -4 -6 51.87 2.23
 -2 -4 5 32.57 1.92
 2 -4 -5 29.9 1.74
 2 -4 -5 30.6 2.23
 2 -4 -5 29.61 1.76
 2 -4 -5 33.79 1.57
 2 -4 -4 1.69 0.6
 -2 -4 4 1.16 1.28
 2 -4 -4 2.47 0.59
 2 -4 -4 1.66 0.96
 2 -4 -4 1.73 1.71
 2 -4 -3 4.78 1.08
 -2 -4 3 4.57 1.25
 2 -4 -3 4.75 0.65
 -2 -4 3 1.61 8.93
 2 -4 -3 4.9 0.64
 2 -4 -3 4.24 1.76
 2 -4 -3 4.51 1
 -2 -4 2 17.14 1.64
 -2 -4 2 18.78 1.25
 2 -4 -2 18.02 1.27
 -2 -4 2 19 1.48
 -2 -4 2 21.92 3.83
 2 -4 -2 18.28 1.05
 2 -4 -2 19.16 1.33
 -2 -4 2 18.59 1.01
 -2 -4 2 15.3 4.14
 2 -4 -2 17.85 1.03
 -2 -4 1 35.55 2.25
 2 -4 -1 30.64 1.68
 -2 -4 1 34.02 2.64
 2 -4 -1 32.64 1.7
 2 -4 -1 32.09 1.72
 -2 -4 1 32.22 1.5
 2 -4 -1 31.11 1.53
 2 -4 -1 31.93 1.48
 -2 -4 1 31.85 1.67
 2 -4 -1 32.55 1.83
 -2 -4 1 27.39 2.3
 -2 -4 1 34.68 1.86
 -2 -4 0 -0.32 1.79
 2 -4 0 0.05 0.87
 2 -4 0 0.02 0.5
 -2 -4 0 0.43 1.16
 2 -4 0 1.08 1.15
 -2 -4 0 0.16 0.51
 2 -4 0 0.05 0.53
 2 -4 0 0.01 1.71
 2 -4 0 0.01 0.99
 -2 -4 0 0.18 0.93
 2 -4 0 -0.03 0.87
 2 -4 0 -0.42 0.99
 2 -4 1 17.47 1.06
 2 -4 1 20.28 1.47
 -2 -4 -1 19.02 1.46
 -2 -4 -1 20.51 1.35
 2 -4 1 18.46 1.91
 2 -4 1 18.96 1.31
 -2 -4 -1 19.9 1.3
 2 -4 1 19.74 1.28
 2 -4 1 18.91 1.24
 2 -4 1 20 1.28
 -2 -4 -1 16.31 1.97
 2 -4 2 21.01 1.53
 -2 -4 -2 19.96 2.04
 2 -4 2 22.44 1.38
 2 -4 2 21.91 1.29
 -2 -4 -2 23.39 1.38
 2 -4 2 21.81 1.43
 -2 -4 -2 22.82 1.39
 2 -4 2 22.26 1.97
 -2 -4 -2 21.44 1.52
 -2 -4 -3 3.61 1.8
 -2 -4 -3 4.67 0.97
 2 -4 3 3.6 0.8
 2 -4 3 4.4 1.18
 2 -4 3 4.1 0.97
 2 -4 3 3.78 1.7
 2 -4 3 3.94 1.07
 2 -4 4 1.66 1.04
 2 -4 4 2.23 0.74
 2 -4 4 2.26 1.19
 2 -4 4 2.44 1.05
 -2 -4 -4 2.82 0.96
 2 -4 4 3.58 1.71
 -2 -4 -4 1.74 1.75
 2 -4 5 33.25 2.16
 2 -4 5 30.39 1.85
 2 -4 5 30.37 1.71
 2 -4 5 27.51 1.68
 -2 -4 -5 28.98 1.48
 -2 -4 -5 29.02 1.63
 -2 -4 -5 25.08 2.16
 2 -4 6 20.58 1.52
 -2 -4 -6 22.04 1.44
 2 -4 6 21.11 2.21
 -2 -4 -6 22.01 1.23
 2 -4 6 23.46 1.52
 -2 -4 -6 19.28 2
 2 4 6 22.13 1.19
 2 -4 6 24.68 8.13
 2 4 7 7.63 0.75
 -2 -4 -7 7.89 1.11
 -2 -4 -7 7.61 0.76
 2 -4 7 6.3 1.23
 -2 -4 -7 5.29 1.77
 2 4 8 15.09 1.01
 -2 -4 -8 14.64 1.01
 2 -4 8 14.17 1.44
 -2 -4 -8 13.59 1.41
 2 -4 8 13.17 6.54
 2 -4 9 2.76 1.24
 2 4 9 1.88 1.69
 -2 -4 -9 2.79 0.6
 -2 -4 -9 3.16 1.92
 2 4 9 2.23 0.69
 2 -4 9 0.33 7.49
 2 -4 9 3.55 1.16
 2 -4 10 0.13 1.25
 2 -4 10 4.38 7.86
 2 -4 10 0.26 1.29
 2 -4 10 -0.04 1.16
 2 4 10 -0.91 1.88
 2 4 10 0.52 0.72
 -2 -4 -10 -0.13 0.57
 2 -4 11 10.13 6.6
 2 -4 11 9.57 1.41
 -2 -4 -11 9.17 0.82
 2 -4 11 9.97 1.31
 2 -4 11 7.3 0.99
 2 -4 11 10.5 1.39
 2 4 11 9.91 0.96
 2 -4 11 10.85 1.44
 2 -4 12 4.06 1.23
 2 -4 12 3.22 1.35
 2 -4 12 3.23 0.91
 2 -4 12 4.35 1.41
 2 -4 12 3.1 1.33
 2 -4 12 4.48 1.35
 2 4 12 3.63 0.83
 2 4 13 6.81 5.56
 2 -4 13 5 1.41
 2 -4 13 5.65 1.3
 2 -4 13 4.58 1.37
 2 -4 13 5.19 1.39
 2 -4 13 5.17 8.89
 2 -4 13 4.78 0.95
 2 -4 13 4.2 1.39
 2 4 13 4.77 0.88
 2 -4 14 71.61 3.28
 2 -4 14 73.14 5.64
 2 -4 14 67 3.17
 2 -4 14 69.88 3.23
 2 4 14 69.91 3.14
 2 -4 14 71.6 3.23
 2 -4 14 71.94 3.29
 2 -4 14 71.51 3.26
 2 -4 15 33.65 2.1
 2 -4 15 31.71 2.03
 2 -4 15 30.86 1.83
 2 -4 15 35.53 2.1
 2 -4 15 36.11 2.02
 2 -4 15 35.22 2.09
 2 4 15 34.45 1.83
 2 4 16 1.11 0.8
 2 -4 16 1.72 1.24
 2 -4 16 0.88 0.84
 2 -4 16 1.98 1.35
 2 -4 16 1.74 1.35
 2 -4 16 1.62 1.36
 2 4 17 2.83 0.81
 2 -4 17 3.73 1.24
 2 -4 17 3.85 1.39
 2 -4 17 2.86 1.34
 2 -4 17 3.63 1.38
 2 4 18 2.12 11.3
 2 -4 18 2.26 1.33
 2 -4 18 2.35 1.33
 2 4 18 2.63 0.8
 2 -4 18 2.35 1.17
 2 4 19 -0.5 0.68
 2 -4 19 1.13 1.22
 2 -4 19 -0.14 1.19
 2 -4 20 3.99 1.13
 2 4 20 3.33 0.7
 2 -4 20 3.9 1.17
 2 4 21 0.92 0.56
 2 -4 21 1.17 0.99
 -2 -6 17 2.39 0.59
 -2 -6 17 3.06 1.03
 -2 6 17 7.3 10.06
 2 -6 -17 1.28 1
 -2 -6 17 2.32 0.94
 2 -6 -17 1.7 0.82
 -2 6 16 7.31 8.55
 2 -6 -16 1.68 0.91
 -2 -6 16 2.84 1.13
 -2 -6 16 2.99 1
 -2 -6 16 3.03 0.68
 2 -6 -15 0.58 0.93
 -2 -6 15 -0.15 0.69
 -2 -6 15 0.36 1.06
 -2 -6 15 -0.68 1.17
 2 -6 -14 0.16 1.68
 -2 -6 14 0.29 1.13
 -2 -6 14 -0.87 1.28
 2 -6 -14 0.25 1
 -2 -6 14 0.19 2.65
 2 -6 -13 -0.51 0.64
 -2 -6 13 -0.43 1.16
 2 -6 -13 -1.69 1.65
 -2 6 13 -0.12 1.57
 2 -6 -13 0.26 1.02
 2 -6 -13 -0.49 1.76
 2 -6 -12 2.15 1.85
 2 -6 -12 0.58 1.06
 2 6 -12 0.29 11.18
 -2 -6 12 -1.13 2.45
 2 -6 -12 0.56 0.7
 2 -6 -12 0.44 1.02
 -2 -6 12 1.47 1.19
 -2 -6 11 -2.54 5.35
 2 -6 -11 0.26 1.11
 2 -6 -11 0.57 0.75
 2 -6 -11 -0.16 1.05
 -2 -6 11 0.21 1.17
 2 -6 -11 0.07 1.87
 2 -6 -10 37.62 2.04
 2 -6 -10 38.23 2.08
 2 -6 -10 33.17 1.89
 -2 -6 10 35.82 1.89
 -2 -6 10 39.02 7.97
 2 -6 -10 38.87 2.52
 2 -6 -9 4.21 1.27
 2 -6 -9 3.38 0.83
 -2 -6 9 1.54 9.1
 -2 -6 9 2.35 0.8
 2 -6 -9 4.17 1.96
 2 -6 -9 3.39 1.13
 2 -6 -8 1.57 1.12
 -2 -6 8 3.6 15.4
 -2 -6 8 1.98 0.75
 2 -6 -8 1.61 1.36
 -2 -6 8 1.15 8.54
 2 -6 -8 1.21 0.8
 -2 -6 8 1.33 1.18
 2 -6 -8 1.19 1.97
 2 -6 -7 0.75 1.35
 -2 -6 7 1.28 1.16
 -2 -6 7 6.82 7.96
 2 -6 -7 0.45 1.11
 -2 -6 7 0.99 0.74
 -2 -6 7 1.81 13.11
 2 -6 -7 0.02 1.99
 2 -6 -6 13.08 1.39
 2 -6 -6 14.35 1.61
 2 -6 -6 12.81 1.56
 -2 -6 6 16.26 1.48
 2 -6 -6 17.75 2.08
 -2 -6 6 15.11 1.12
 -2 -6 6 13.48 6.11
 -2 -6 6 13.09 9.48
 -2 -6 5 0.3 1.18
 -2 -6 5 0.52 0.7
 2 -6 -5 0.72 1.09
 -2 -6 5 1.3 3.45
 2 -6 -5 0.06 1.37
 2 -6 -5 -0.06 1.31
 2 -6 -5 1 1.88
 -2 -6 4 0.53 1.8
 2 -6 -4 0.53 1.08
 -2 -6 4 -0.28 0.67
 -2 -6 4 0.97 1.21
 2 -6 -4 1.12 1.9
 2 -6 -4 0.64 1.31
 -2 -6 3 11.79 0.97
 2 -6 -3 11.18 2.05
 2 -6 -3 10.42 1.33
 -2 -6 3 12.13 1.63
 2 -6 -3 9.24 1.47
 -2 -6 3 12 18.94
 2 -6 -2 18.02 1.71
 -2 -6 2 18.18 20.53
 2 -6 -2 19.55 1.61
 2 -6 -2 18.6 1.54
 -2 -6 2 17.46 1.76
 -2 -6 1 223.72 22.01
 2 -6 -1 240.13 9.28
 2 -6 -1 234.87 9.33
 -2 -6 1 233.84 9.32
 2 -6 0 0.53 1.43
 -2 -6 0 1.02 1.43
 2 -6 0 0.8 1.2
 2 -6 0 1.01 1.99
 -2 -6 0 10.76 18.34
 -2 -6 -1 164.64 6.7
 2 -6 1 169.65 6.72
 2 -6 1 166.57 6.61
 -2 -6 -1 180.48 16.54
 2 -6 1 157.91 6.84
 2 -6 2 17.87 2.63
 -2 -6 -2 18.19 11.68
 -2 -6 -2 18.11 1.46
 2 -6 2 17.53 1.72
 2 -6 2 16.79 1.42
 -2 -6 -2 15.79 1.69
 2 -6 2 16.81 1.49
 2 -6 3 3.21 8.62
 -2 -6 -3 -0.67 8.72
 -2 -6 -3 1.35 1.12
 2 -6 3 1.55 1.23
 2 -6 3 0.8 1.49
 2 -6 3 0.05 1.62
 -2 -6 -3 0.8 1.36
 -2 -6 -4 2.46 1.13
 -2 -6 -4 1.33 6.32
 2 -6 4 2.38 1.85
 2 -6 4 4.06 4.74
 2 6 4 4.1 1.38
 2 -6 4 2.49 1.25
 2 -6 4 -9.14 17.87
 -2 -6 -4 2.49 1.37
 -2 -6 -5 0.76 1.32
 -2 -6 -5 -3.13 4.88
 2 -6 5 0.79 1.22
 2 -6 5 0.77 4.2
 2 6 5 0.82 1.47
 -2 -6 -5 -0.68 1.08
 -2 -6 -6 13.93 4.22
 -2 -6 -6 11.47 1.51
 2 -6 6 11.27 1.4
 -2 -6 -6 8.05 0.89
 2 6 6 11.75 1.65
 -2 -6 -6 10.69 1.26
 2 -6 7 1.27 1.24
 2 6 7 0.3 1.64
 2 -6 7 -1.77 12.33
 -2 -6 -7 0.35 0.65
 -2 -6 -7 0.9 1.08
 -2 -6 -7 1.78 4.11
 2 -6 7 -2.1 9.3
 -2 -6 -7 0.43 1.3
 2 -6 8 7.46 1.33
 -2 -6 -8 6.59 1.42
 2 -6 8 13.18 11.47
 -2 -6 -8 9.07 4.65
 2 6 8 6.51 2.07
 -2 -6 -8 4.76 0.79
 2 -6 8 13.54 10.21
 -2 -6 -8 7.29 1.16
 -2 -6 -9 1.36 1.14
 2 -6 9 2.1 0.73
 -2 -6 -9 2.12 1.29
 2 6 9 -2.04 3.52
 2 -6 9 2.3 1.28
 2 -6 10 36.69 21.82
 2 -6 10 25.96 1.48
 2 6 10 34.01 6.29
 2 -6 10 28.74 1.79
 2 -6 10 19.93 9.26
 -2 -6 -10 24.33 1.87
 -2 -6 -10 29.68 1.72
 2 -6 11 0.83 0.72
 -2 -6 -11 1.03 1.3
 -2 -6 -11 0.49 1.05
 2 6 12 -0.11 12.9
 2 -6 12 13.48 13.43
 -2 -6 -12 0.11 1.22
 2 -6 12 0.31 0.69
 -2 -6 -12 0.34 0.98
 -2 -6 -13 0.13 0.99
 2 -6 13 0.14 7.83
 -2 -6 -13 -0.26 1.17
 2 -6 13 -0.03 0.68
 2 -6 14 0.69 1.13
 2 -6 14 1.64 3.21
 2 6 14 8.05 14.43
 -2 -6 -14 -0.15 0.94
 2 -6 14 0.55 0.65
 2 -6 15 1.12 1.07
 -2 -6 -15 0.39 0.9
 -2 -6 -15 0.57 1.03
 2 -6 15 0.27 0.59
 2 -6 16 0.78 0.51
 -2 -6 -16 0.39 0.81
 2 -6 16 0.84 1.02
 -2 -8 8 0.39 1.51
 2 -8 -7 0.08 1.01
 -2 -8 7 1.3 3.25
 2 -8 -7 -0.3 13.45
 2 -8 -6 0.27 1.08
 -2 -8 6 4.38 5.18
 2 8 -6 -32.18 20.43
 -2 -8 6 -28.13 12.68
 2 -8 -6 -2.77 14.3
 2 8 -5 27.02 24.39
 -2 -8 5 -0.16 6.55
 -2 -8 5 32.72 14.25
 2 -8 -5 0.96 1.15
 2 -8 -5 6.82 15.18
 2 -8 -4 -0.2 1.19
 -2 -8 4 3.7 7.34
 2 -8 -4 -5.1 15.86
 -2 -8 3 1.74 7.43
 2 -8 -3 0.27 1.36
 -2 -8 2 -5.56 13.13
 -2 -8 2 2.18 7.03
 -2 -8 1 -3.41 13.19
 2 -8 -1 -1.03 3.25
 2 -8 -1 -5.36 15.24
 -2 -8 1 -1.33 6.37
 -2 -8 0 -2.9 12.46
 2 -8 0 -3.49 4.85
 2 -8 0 -3.25 13.62
 -2 -8 0 -3.14 5.37
 -2 -8 -1 4.04 11.47
 -2 -8 -1 1.25 4.05
 2 -8 1 3.38 6.42
 2 -8 1 1.83 10.73
 2 -8 2 -1.17 9.1
 -2 -8 -2 -6.47 10.6
 -2 -8 -2 3.2 2.89
 2 -8 2 -1.87 7.15
 -2 -8 -3 4.44 9.79
 -2 -8 -3 -0.01 2
 2 -8 3 3.79 7.38
 2 -8 3 5.75 10.57
 -2 -8 -4 4.95 9.3
 2 -8 4 10.54 11.84
 -2 -8 -4 1.52 1.52
 2 -8 4 -7.78 7.55
 -2 -8 -5 -3.32 9.13
 -2 -8 -5 1.46 1.28
 2 -8 5 3.24 7.28
 2 -8 6 -38.02 15.21
 -2 -8 -6 1.9 1.13
 -3 1 25 1.51 0.95
 3 1 -25 1.07 0.48
 3 -1 -25 1.21 0.48
 3 1 -24 -0.16 0.59
 -3 -1 24 1.88 1.13
 3 -1 -24 -0.54 0.6
 -3 -1 24 1.14 1.06
 3 1 -23 0.09 0.64
 -3 -1 23 -0.05 1.18
 3 -1 -23 0.35 0.69
 -3 -1 23 0.64 1.22
 -3 1 23 0.56 0.56
 -3 1 23 -0.26 1.22
 -3 -1 22 1.38 1.14
 -3 1 22 1.94 1.25
 -3 1 22 1.54 1.32
 3 1 -22 1.78 0.78
 -3 -1 22 1.65 1.32
 -3 -1 22 1.48 1.27
 3 -1 -22 1.68 0.83
 -3 1 22 0.86 0.65
 -3 -1 21 6.57 0.9
 -3 -1 21 6.24 1.4
 -3 -1 21 6.73 1.3
 -3 1 21 6.36 1.43
 -3 -1 21 6.16 1.4
 -3 1 21 7.42 1.38
 3 -1 -21 6.36 0.99
 -3 -1 21 7.05 1.44
 -3 1 21 5.57 0.83
 -3 1 21 6.6 1.33
 3 1 -21 6.76 0.96
 3 -1 -20 3.63 0.94
 -3 1 20 3.98 1.36
 -3 -1 20 4.51 0.86
 -3 -1 20 5.82 1.42
 -3 -1 20 2.56 1.38
 -3 1 20 3.26 1.35
 -3 -1 20 4.71 1.35
 -3 -1 20 3.2 1.35
 -3 1 20 5.04 1.39
 3 1 -20 3.33 0.89
 -3 -1 19 1.37 1.42
 -3 1 19 -0.54 1.3
 -3 -1 19 -0.6 1.35
 3 1 -19 -0.09 0.87
 -3 -1 19 0.85 1.31
 3 -1 -19 -0.05 0.9
 -3 1 19 0.62 1.31
 -3 1 19 0.85 1.37
 -3 -1 19 0.07 0.8
 -3 -1 19 -0.06 1.34
 -3 -1 18 1.47 0.81
 -3 1 18 1 1.25
 -3 -1 18 1.54 1.34
 3 1 -18 1.63 0.9
 -3 1 18 1.71 1.33
 -3 -1 18 1.07 1.34
 3 -1 -18 1.11 0.86
 -3 -1 18 1.85 1.37
 -3 1 18 -0.14 1.32
 -3 -1 17 2.06 1.33
 -3 -1 17 1.85 1.32
 -3 -1 17 1.65 0.82
 -3 1 17 2.34 1.27
 -3 -1 17 1.51 1.26
 3 1 -17 2.27 0.85
 -3 1 17 1.53 1.31
 3 -1 -17 3 0.9
 -3 1 16 1.01 1.3
 -3 1 16 1.26 1.24
 -3 -1 16 0.47 1.33
 3 1 -16 -0.08 0.7
 -3 -1 16 0.91 1.29
 -3 -1 16 0.64 0.79
 3 -1 -16 0.76 0.83
 -3 -1 16 0.83 1.24
 -3 -1 15 44.59 2.33
 -3 -1 15 47.55 2.21
 3 1 -15 47.73 2.21
 3 -1 -15 44.79 2.16
 -3 -1 15 46.27 2.41
 -3 1 15 44.29 2.34
 -3 -1 15 44.78 2.38
 -3 -1 14 33.78 1.94
 -3 -1 14 30.9 2
 -3 1 14 34.2 1.95
 -3 -1 14 33.46 1.99
 3 -1 -14 36.11 1.75
 -3 -1 13 3.66 1.04
 3 -1 -13 5.04 0.79
 -3 -1 13 3.33 1.14
 -3 1 13 4.21 1.18
 -3 -1 13 3.65 1.24
 3 1 -13 4.44 2.11
 3 -1 -12 1.29 0.67
 -3 -1 12 0.67 0.97
 3 1 -12 0.12 2.08
 -3 1 12 0.5 1.09
 -3 -1 12 0.84 1.15
 -3 -1 11 73.32 3.17
 3 -1 -11 77.94 3.11
 -3 -1 11 74.7 3.26
 -3 1 11 71.09 3.21
 -3 1 11 74.59 3.71
 3 -1 -11 75.78 3.14
 3 1 -11 86.37 3.57
 -3 1 11 75.57 3.69
 -3 1 11 75.24 3.19
 -3 -1 11 73.46 3.2
 -3 1 10 7.25 1.2
 -3 -1 10 7.7 1.2
 -3 -1 10 7.49 0.66
 -3 -1 10 6.19 0.79
 3 1 -10 6.87 2.1
 -3 -1 10 7.88 1.06
 -3 -1 10 7.15 0.83
 -3 1 10 7.42 1.24
 3 -1 -10 6.93 0.7
 3 -1 -10 7.35 0.75
 3 -1 -10 7.9 0.75
 -3 -1 9 47.54 2.09
 -3 1 9 43.8 2.5
 3 -1 -9 46.53 1.97
 -3 1 9 46.04 2.07
 -3 -1 9 46.24 2.06
 -3 1 9 45.67 2.52
 -3 -1 9 45.37 2.19
 -3 -1 9 42.68 2.12
 3 -1 -9 43.33 1.96
 -3 1 8 2.7 1.06
 -3 1 8 2.83 1.05
 -3 -1 8 2.24 0.69
 3 1 -8 2.45 0.66
 -3 1 8 2.02 0.66
 -3 1 7 10.02 1.2
 3 1 -7 10.31 0.85
 -3 1 7 11.61 0.84
 -3 1 6 53.99 2.29
 -3 1 6 51.52 2.67
 3 1 -6 56.6 2.3
 3 1 -5 34.64 1.53
 3 1 -5 33.15 1.72
 -3 1 5 33.43 1.51
 -3 -1 5 33.08 1.55
 3 1 -4 292.78 11
 -3 1 4 283.06 10.97
 -3 -1 4 295.54 11
 3 1 -4 289.54 11.19
 -3 1 3 208.68 8.46
 3 1 -3 217.02 8.18
 -3 -1 3 213.79 8.17
 3 1 -3 213.02 8.4
 -3 1 3 215.89 8.15
 3 1 -2 28.33 1.67
 -3 1 2 26.61 1.17
 -3 1 2 28.81 1.61
 -3 -1 2 27.33 1.24
 -3 1 1 400.06 15.08
 -3 1 1 393.27 15.38
 -3 -1 1 405.63 15.12
 3 1 -1 406.86 15.43
 -3 1 0 445.89 16.7
 3 1 0 441.67 16.76
 -3 1 0 456 17.02
 -3 -1 0 445.97 16.76
 -3 1 -1 588.76 22.08
 -3 1 -1 583.64 22.39
 3 1 1 589.01 22.16
 -3 -1 -1 598.85 22.16
 -3 1 -2 18.36 1.27
 -3 -1 -2 17.73 0.9
 3 1 2 18.68 0.91
 3 -1 3 16.08 1.12
 3 1 3 16.06 0.86
 -3 -1 -3 16.85 0.85
 3 -1 4 80.68 3.36
 3 1 4 78.57 3.11
 3 -1 5 89.27 3.62
 3 1 5 85.63 3.41
 3 -1 6 7.17 0.81
 3 1 6 5.26 0.56
 -3 -1 -7 6.01 1.11
 3 1 7 4.97 0.56
 3 -1 7 4.51 0.76
 3 -1 8 8.02 0.81
 3 1 8 8.19 0.71
 -3 -1 -8 8.11 1.24
 3 -1 8 8.21 1.16
 3 1 8 7.98 0.66
 3 -1 8 7.25 1.17
 3 -1 9 27.2 1.55
 3 -1 9 27.21 1.59
 3 -1 9 26.44 1.59
 -3 -1 -9 27.93 1.85
 3 1 9 25.49 1.22
 3 1 9 20.28 3.01
 3 1 9 25.25 1.59
 3 -1 9 24.96 1.67
 3 1 9 26.29 1.26
 3 1 9 25.86 1.28
 3 -1 9 25.17 1.34
 3 -1 10 1.97 0.66
 3 -1 10 1.89 1.12
 3 1 10 1.78 0.48
 3 -1 10 2.49 1.17
 3 -1 10 2.3 1.05
 3 1 10 1.96 0.63
 3 1 10 2.03 1.14
 3 -1 10 1.56 1.2
 3 -1 11 1.41 1.05
 3 -1 11 0.35 1.19
 3 1 11 0.57 1.12
 3 1 11 3.03 5.79
 3 -1 11 0.26 0.67
 3 -1 11 0.76 1.13
 3 -1 11 0.25 1.24
 3 1 11 0.25 0.6
 3 -1 12 4.7 0.74
 3 -1 12 5.59 1.2
 3 1 12 2.37 6.83
 3 -1 12 5.57 1.14
 3 1 12 5.59 1.26
 3 -1 12 5.53 1.27
 3 1 12 5.52 0.76
 3 -1 13 0.07 1.19
 3 -1 13 0.34 1.25
 3 1 13 0.49 1.19
 3 -1 13 0.02 0.67
 3 1 13 0.41 0.67
 3 -1 14 1.56 1.21
 3 -1 14 1.79 1.3
 3 -1 14 1.01 0.78
 3 -1 14 1.81 1.32
 3 1 14 1.29 1.23
 3 1 14 1.06 0.71
 3 -1 15 0.76 1.23
 3 1 15 0.27 1.37
 3 -1 15 0.17 1.34
 3 1 15 0.45 0.72
 3 -1 16 0.05 1.24
 3 1 16 1.29 1.38
 3 -1 16 -0.07 1.35
 3 1 16 -0.37 1.35
 3 1 16 -0.14 0.74
 3 -1 17 6 1.39
 3 -1 17 6.28 1.45
 3 1 17 6.14 1.52
 3 1 17 5.51 1.44
 3 -1 17 6.34 1.54
 3 1 17 5.8 0.9
 3 -1 18 4.08 1.36
 3 -1 18 3.73 1.41
 3 -1 18 4.41 1.56
 3 1 18 4.37 1.49
 3 1 18 3.32 0.85
 3 1 18 3.14 1.37
 3 -1 19 -0.26 1.32
 3 -1 19 0.16 1.25
 3 1 19 -0.47 1.36
 3 -1 19 0.27 1.33
 3 -1 19 1.06 1.48
 3 1 19 1.07 1.38
 3 1 19 0.19 0.76
 3 -1 20 5.64 1.39
 3 -1 20 6.96 1.43
 3 -1 20 5.03 1.51
 3 1 20 5.35 1.45
 3 1 20 5.21 1.39
 3 1 20 6.04 0.82
 3 -1 21 2.26 1.37
 3 -1 21 2.54 1.33
 3 -1 21 3.38 1.31
 3 1 21 3.46 1.27
 3 1 21 3.05 1.37
 3 1 21 3.37 1.29
 3 1 21 4.17 0.73
 3 -1 22 0.82 0.63
 3 1 22 0.16 1.16
 3 1 22 0.68 1.2
 3 -1 22 0.01 1.23
 3 -1 22 -0.55 1.25
 3 1 22 0.83 1.29
 3 -1 22 -0.08 1.27
 3 -1 23 -0.66 1.12
 3 -1 23 0.31 1.14
 3 1 23 0.36 1.02
 3 -1 23 0.23 1.09
 3 1 23 -0.27 1.12
 -3 -3 23 2.03 0.96
 3 -3 -23 1.64 0.6
 -3 3 23 1.25 0.51
 3 3 -23 1.67 0.55
 -3 -3 23 1.96 1.02
 3 -3 -22 11.29 0.91
 -3 -3 22 11.68 1.23
 -3 -3 22 10.9 1.29
 -3 -3 22 10.27 1.27
 -3 -3 22 6.85 0.76
 -3 3 22 9.31 0.85
 3 3 -22 9.34 0.86
 -3 3 22 10.21 1.22
 3 3 -21 0.94 0.69
 3 -3 -21 0.44 0.79
 -3 -3 21 0.72 1.14
 -3 -3 21 1.29 1.24
 -3 3 21 1.96 1.2
 -3 -3 21 0.72 0.64
 -3 -3 21 1.43 1.23
 -3 -3 20 0.72 1.21
 3 3 -20 1.43 0.8
 -3 3 20 0.39 1.23
 -3 -3 20 1.58 1.31
 -3 -3 20 1.49 0.72
 -3 -3 20 0.77 1.3
 3 -3 -20 1.05 0.82
 -3 -3 19 -0.33 1.25
 -3 3 19 -0.08 1.25
 -3 -3 19 0.85 1.31
 -3 -3 19 0.46 1.33
 -3 -3 19 0.56 1.34
 3 -3 -19 -0.35 0.88
 3 3 -19 -0.19 0.79
 -3 3 19 -0.11 0.78
 -3 -3 19 -0.13 0.79
 -3 -3 18 20.49 1.71
 -3 3 18 23.73 4.2
 3 3 -18 16.2 1.39
 -3 3 18 20.68 1.63
 -3 -3 18 20.58 1.72
 -3 -3 18 19.15 1.32
 3 -3 -18 14.86 1.45
 -3 -3 18 19.99 1.7
 -3 -3 18 17.53 1.35
 -3 -3 17 22.29 1.81
 -3 3 17 26.47 1.76
 -3 -3 17 22.1 1.81
 -3 -3 17 23.7 1.87
 3 -3 -17 23.54 1.58
 -3 3 16 34.31 2.06
 -3 -3 16 33.09 2.12
 -3 -3 16 33.98 2.12
 3 -3 -16 34.35 2.41
 -3 -3 15 91.25 3.93
 -3 3 15 97.51 4.06
 3 3 -15 96.27 4.31
 -3 -3 15 90.84 3.99
 -3 -3 15 91.25 4.11
 3 -3 -15 94.66 4.22
 3 3 -14 14.96 2.33
 -3 -3 14 15.65 3.05
 3 -3 -14 13.55 2.03
 -3 -3 14 12.89 1.53
 -3 -3 14 11.65 1.33
 -3 -3 14 13.38 1.13
 -3 3 14 12.27 1.44
 -3 -3 13 2.71 0.74
 -3 3 13 2.1 1.23
 -3 -3 13 3.32 2.93
 -3 -3 13 2.54 1.33
 -3 -3 13 1.22 0.76
 3 3 -13 1.5 2.22
 -3 -3 13 2.66 1.1
 3 -3 -13 1.61 1.84
 -3 -3 12 1.66 0.73
 -3 -3 12 2.79 1.31
 3 3 -12 3.46 4.34
 3 -3 -12 2.86 1.85
 3 -3 -12 1.72 1.09
 -3 -3 12 1.88 1.3
 -3 -3 12 3.81 0.79
 3 -3 -12 3.11 0.77
 3 -3 -11 0.02 0.74
 3 -3 -11 0.3 0.73
 -3 -3 11 1.34 1.97
 3 -3 -11 -0.07 1.78
 -3 -3 11 -0.31 0.71
 3 -3 -11 -0.04 1.05
 3 -3 -11 0.18 0.77
 -3 -3 11 0.38 1.21
 -3 -3 11 0.56 0.64
 3 -3 -10 5.22 0.75
 -3 -3 10 4.63 0.74
 -3 -3 10 5.91 0.76
 -3 -3 10 5.24 3.01
 -3 -3 10 4.35 1.23
 3 -3 -10 4.95 0.83
 3 -3 -10 4.41 0.74
 3 -3 -10 3.45 1.08
 3 -3 -10 4.57 1.79
 -3 -3 9 5.4 1.19
 -3 -3 9 5.03 0.72
 -3 -3 9 5.52 3.43
 -3 -3 9 5.8 0.74
 3 -3 -9 4.16 0.78
 3 -3 -9 4.55 1.08
 3 -3 -9 5.25 0.75
 3 -3 -9 4.8 1.79
 3 -3 -8 2.47 0.67
 3 -3 -8 2.51 0.69
 -3 -3 8 2.34 0.97
 -3 -3 8 1.9 0.61
 -3 -3 8 4.1 3.28
 -3 -3 8 2.7 1.12
 3 -3 -8 1.22 1.72
 -3 -3 7 -0.08 1.07
 3 -3 -7 -0.08 0.59
 3 -3 -7 0.11 0.62
 -3 3 7 -0.13 0.62
 -3 -3 7 -1.66 2.34
 3 -3 -7 -0.24 0.63
 -3 -3 7 0.44 0.62
 3 -3 -7 0.06 1.74
 -3 -3 7 -0.06 0.91
 -3 -3 6 564.16 20.34
 3 -3 -6 529.55 20.26
 -3 3 6 545.4 20.33
 3 -3 -6 525.01 20.27
 3 -3 -6 522.38 20.29
 3 -3 -6 538.61 20.22
 -3 -3 6 537.64 20.21
 -3 -3 6 530.88 20.34
 -3 3 5 33.08 1.58
 3 -3 -5 31.47 1.52
 -3 -3 5 34.79 1.98
 -3 -3 5 31.61 1.88
 3 -3 -5 30.76 1.51
 -3 -3 5 32.63 1.6
 3 -3 -5 30.7 2.22
 -3 3 4 42 2.59
 -3 -3 4 45.27 2.15
 -3 -3 4 43.84 2.32
 -3 -3 4 45.49 1.99
 3 -3 -4 39.92 1.84
 3 -3 -4 40.32 1.85
 -3 3 3 0.23 1.07
 3 -3 -3 0.52 0.56
 -3 -3 3 -0.36 0.87
 -3 3 3 -0.06 0.65
 -3 -3 2 39.7 2.32
 -3 3 2 38.84 2.38
 -3 3 2 37.2 1.76
 -3 -3 2 38.99 1.84
 -3 -3 1 7.13 0.8
 -3 3 1 6.14 0.58
 -3 3 1 6.51 1.16
 -3 -3 1 6.02 1.19
 -3 3 0 68.16 3.34
 -3 3 0 66.14 2.8
 -3 -3 0 75.17 3.52
 -3 -3 0 73.77 2.98
 -3 3 -1 3.28 0.82
 -3 -3 -1 1.9 0.75
 -3 3 -1 1.27 0.69
 -3 -3 -1 2.06 1.14
 -3 -3 -2 4.98 0.84
 -3 3 -2 4.48 0.91
 -3 -3 -2 3.8 1.93
 -3 3 -2 4.43 0.89
 -3 -3 -2 4.79 1.19
 -3 -3 -3 10.13 1.48
 3 3 3 11.09 1.25
 3 -3 3 10.06 1.11
 -3 -3 -3 12.65 1.94
 -3 -3 -4 41.46 2.41
 3 -3 4 40.47 2.02
 3 3 4 40.6 2.09
 3 3 4 42.69 1.81
 3 -3 4 38.82 1.97
 3 -3 5 116.57 4.81
 3 3 5 122 4.74
 -3 -3 -5 130.14 5.07
 3 -3 5 117.9 4.8
 3 3 5 117.53 4.86
 3 -3 6 35.73 3.65
 3 -3 6 39.11 1.98
 3 -3 6 37.69 2.01
 3 3 6 37.1 2.23
 -3 -3 -6 37.97 1.76
 3 -3 6 39.9 1.93
 -3 -3 -6 42.16 2.62
 3 3 6 40.55 1.79
 3 -3 7 30.56 1.51
 3 -3 7 30.31 1.78
 3 -3 7 29.7 1.72
 -3 -3 -7 29.33 1.5
 3 -3 7 31.51 1.77
 3 -3 7 33.85 1.69
 3 3 7 30.3 2.16
 3 -3 7 31.77 4.78
 3 3 7 30.25 1.52
 3 -3 8 0.69 1.09
 -3 -3 -8 0.37 0.61
 3 -3 8 1.19 1.13
 3 -3 8 0.3 1.1
 3 -3 8 -0.19 5.32
 3 -3 8 0.8 1.12
 3 -3 8 0.78 1.17
 3 -3 8 0.87 0.64
 3 -3 8 0.65 1.11
 3 3 8 0.91 0.62
 3 -3 9 0.93 1.15
 3 -3 9 0.23 1.18
 3 -3 9 0.84 1.2
 3 -3 9 0.07 1.18
 3 -3 9 -0.56 5.23
 3 3 9 0.21 0.66
 3 -3 9 0.16 0.69
 3 -3 9 0.57 1.1
 -3 -3 -9 0.66 0.62
 3 3 9 0.63 1.23
 3 -3 9 1.12 1.13
 3 3 10 4.53 1.29
 3 -3 10 4.04 1.13
 3 -3 10 4.13 1.26
 3 -3 10 4.03 1.17
 3 -3 10 1.47 4.05
 3 -3 10 4.33 1.27
 3 3 10 3.72 2.8
 3 -3 10 3.31 0.75
 -3 -3 -10 4.02 0.71
 3 -3 10 4.6 1.32
 3 3 10 2.97 0.68
 -3 -3 -11 2.68 0.68
 3 3 11 2.85 1.31
 3 -3 11 2.61 1.27
 3 -3 11 3.98 1.16
 3 3 11 0.15 4.03
 3 -3 11 1.83 1.27
 3 -3 11 2.89 1.29
 3 -3 11 2.85 0.76
 3 -3 11 2.45 1.18
 3 3 11 2.72 0.75
 -3 -3 -12 3.93 0.77
 3 -3 12 5.34 1.32
 3 -3 12 4.39 1.32
 3 -3 12 4.32 1.2
 3 -3 12 3.71 0.86
 3 -3 12 4.76 1.37
 3 -3 12 5.02 1.37
 3 3 12 4.32 1.36
 3 3 12 4.36 0.83
 3 -3 13 22.73 1.68
 3 3 13 19.5 1.34
 3 -3 13 21.64 1.61
 3 -3 13 20.54 3.43
 3 -3 13 23.48 1.73
 3 3 13 18.74 11.48
 3 -3 13 18.24 1.32
 3 -3 13 18.23 1.75
 -3 -3 -13 19.6 1.27
 3 3 13 21.44 1.74
 3 -3 13 19.81 1.73
 3 -3 14 222.54 8.49
 3 -3 14 213.4 8.49
 3 -3 14 215.83 8.47
 3 -3 14 219.31 8.46
 3 3 14 212.47 8.46
 3 -3 14 217.42 8.52
 -3 -3 -14 203.6 8.38
 3 3 14 212.61 8.5
 3 -3 15 16.73 1.58
 3 3 15 15.94 1.27
 3 3 15 18.59 1.74
 3 -3 15 16.58 1.69
 3 -3 15 19.15 1.58
 3 3 15 15.78 16.19
 3 -3 15 17.15 1.71
 3 -3 15 18.18 1.71
 3 -3 16 158.69 6.55
 3 3 16 158.71 6.57
 3 -3 16 160.81 6.6
 3 -3 16 158.13 6.55
 3 -3 16 163.62 6.56
 3 3 16 166.47 6.53
 3 -3 16 162.82 6.5
 3 -3 17 -0.34 1.25
 3 -3 17 0.37 1.4
 3 -3 17 0.21 1.43
 3 -3 17 0.5 0.87
 3 3 17 0.39 1.43
 3 3 18 5.52 1.44
 3 -3 18 5.91 1.43
 3 -3 18 4.98 1.37
 3 3 18 7.83 3.55
 3 -3 18 4.22 1.45
 3 -3 18 5.75 1.26
 3 -3 19 0.78 1.26
 3 -3 19 1.09 1.34
 3 -3 19 1.19 1.35
 3 3 19 0.82 1.33
 3 3 19 0.77 0.73
 3 3 20 2.85 0.72
 3 -3 20 3.42 1.21
 3 3 20 3.98 1.3
 3 -3 20 3.57 1.28
 3 -3 20 4.01 1.31
 3 -3 21 0.98 1.08
 3 3 21 0.76 0.6
 3 -3 21 1.22 1.17
 3 -3 22 -0.06 1.03
 3 3 22 -0.75 0.52
 -3 -5 20 1.32 0.9
 -3 -5 20 1.22 0.98
 3 5 -20 0.95 0.48
 -3 -5 20 0.9 0.52
 3 -5 -20 0.73 0.76
 -3 5 20 0.51 0.48
 -3 -5 19 2.47 0.65
 -3 -5 19 1.7 1.01
 -3 -5 19 2.33 1.08
 3 -5 -19 0.77 0.49
 3 5 -19 1.66 0.6
 -3 5 19 1.27 0.54
 -3 -5 18 4.22 0.74
 -3 -5 18 4.89 1.15
 3 -5 -18 2.64 0.62
 -3 -5 18 4.41 1.26
 -3 5 18 3.82 0.68
 -3 -5 18 5.16 1.02
 -3 -5 17 5.88 1.24
 -3 -5 17 4.87 1.34
 -3 -5 17 5.94 1.12
 -3 5 17 7.13 4.07
 3 -5 -17 4.46 0.72
 -3 -5 17 5.67 0.86
 -3 5 17 4.66 0.75
 3 -5 -16 2.25 0.68
 -3 -5 16 3.16 1.17
 -3 -5 16 2.8 1.24
 -3 -5 16 2.21 1.31
 -3 5 16 2.58 0.73
 3 -5 -15 3.66 1.84
 -3 -5 15 2.39 2.86
 -3 5 15 1.72 0.73
 3 -5 -15 2.23 0.75
 -3 -5 15 2.39 1.14
 -3 -5 15 2.6 1.29
 -3 -5 14 3.26 1.2
 -3 -5 14 8.19 2.95
 -3 -5 14 3.4 1.32
 3 -5 -14 2.19 1
 3 -5 -14 2.18 0.74
 -3 5 14 2.59 0.75
 3 5 -14 2.56 2.25
 3 -5 -14 3.64 1.89
 -3 -5 13 7.5 1.36
 3 -5 -13 7.28 1.95
 3 -5 -13 7.54 0.93
 -3 -5 13 8.59 1.3
 -3 -5 13 4.98 4.38
 -3 5 13 7.6 0.92
 3 -5 -13 7.69 1.21
 -3 -5 12 0.17 1.29
 3 -5 -12 1.53 1.93
 -3 -5 12 -1.35 2.6
 3 -5 -12 -0.28 1.13
 3 -5 -12 0.12 0.76
 -3 -5 12 0.7 1.15
 -3 -5 12 0.1 0.76
 -3 -5 11 1.06 1.28
 -3 -5 11 0.79 1.16
 3 -5 -11 1.44 1.22
 -3 -5 11 -1.25 5.41
 3 -5 -11 1.2 0.75
 3 -5 -11 1.85 1.96
 -3 -5 11 1.71 0.82
 3 -5 -11 0.67 1.17
 -3 -5 10 -6.86 17.82
 -3 -5 10 4.85 1.3
 3 -5 -10 4.65 1.19
 -3 -5 10 2.88 7.4
 3 -5 -10 3.95 0.82
 3 -5 -10 4.03 1.29
 -3 -5 10 4.39 0.87
 3 -5 -10 4.21 1.92
 -3 -5 10 3.76 1.18
 3 -5 -9 2.09 1.91
 -3 -5 9 2.67 0.79
 -3 -5 9 -0.67 8.28
 3 -5 -9 1.94 1.29
 3 -5 -9 2.55 0.8
 3 -5 -9 1.54 1.16
 -3 -5 8 0.8 13.08
 3 -5 -8 0.38 1.91
 -3 -5 8 -0.09 0.72
 -3 -5 8 -6.99 7.46
 3 -5 -8 0.47 1.28
 3 -5 -8 -0.18 1.15
 3 -5 -8 0.33 0.8
 -3 -5 7 2.58 0.75
 3 -5 -7 3.85 1.17
 3 -5 -7 3.35 1.9
 -3 -5 7 4.38 5.77
 3 -5 -7 3.17 1.31
 3 -5 -7 3.04 0.83
 3 -5 -7 2.97 1.16
 3 -5 -6 1.48 1.89
 -3 -5 6 4.4 3.85
 3 -5 -6 0.97 1.1
 -3 -5 6 1.92 0.72
 3 -5 -6 1.6 1.27
 3 -5 -6 1.4 0.74
 3 -5 -6 1.02 0.69
 3 -5 -6 1.31 1.15
 -3 -5 5 2.57 8.93
 3 -5 -5 1.66 1.88
 -3 -5 5 2.48 2.03
 3 -5 -5 2.68 1.28
 3 -5 -5 2.11 0.75
 3 -5 -5 1.78 1.09
 3 -5 -5 2.19 0.71
 -3 -5 4 13.38 13.17
 -3 -5 4 15.57 1.64
 3 -5 -4 13.47 1.06
 3 -5 -4 14.55 1.37
 3 -5 -4 14.71 1.05
 3 -5 -4 13.78 1.32
 -3 -5 3 9.19 16.86
 3 -5 -3 1.53 1.31
 -3 -5 3 0.51 1.33
 3 -5 -3 0.68 0.67
 3 -5 -3 1.37 1.09
 3 -5 -3 0.65 1.11
 3 -5 -3 0.7 0.64
 3 -5 -2 12.82 0.97
 3 -5 -2 15.78 1.5
 3 -5 -2 13.66 1.29
 -3 -5 2 15.15 1.51
 3 -5 -2 13.49 1.36
 3 -5 -2 11.55 0.97
 3 -5 -2 15.22 1.98
 3 -5 -2 12.99 1.34
 -3 -5 2 12.25 17.83
 -3 -5 1 80.37 16.99
 3 -5 -1 76.94 3.39
 3 -5 -1 79.96 3.4
 3 -5 -1 82.96 3.48
 -3 -5 1 79.55 3.47
 3 -5 -1 75.77 3.29
 -3 -5 1 75.42 3.25
 3 -5 -1 80.96 3.7
 3 -5 -1 77.45 3.37
 3 -5 -1 75.16 3.23
 -3 -5 0 -0.13 1.3
 3 -5 0 0.75 1.89
 3 -5 0 0.16 1.14
 -3 -5 0 0.58 1.02
 3 -5 0 -0.32 1.28
 3 -5 0 0.08 1.07
 -3 -5 0 0.03 0.57
 -3 -5 0 -4.32 14.49
 3 -5 1 16.2 1.55
 3 -5 1 16.86 2.08
 -3 -5 -1 9.53 11.04
 -3 -5 -1 16.91 1.52
 3 -5 1 14.28 1.3
 -3 -5 -1 17.13 1.36
 3 -5 1 15.92 1.34
 -3 -5 -1 15.78 1.06
 3 -5 1 15.06 1.34
 -3 -5 -2 5.41 1.11
 3 -5 2 6.07 1.91
 3 5 2 5.35 1.21
 -3 -5 -2 2.42 7.68
 -3 -5 -2 4.55 0.73
 -3 -5 -2 5.09 1.32
 3 -5 2 4.83 1.33
 3 -5 2 5.07 1.01
 3 -5 3 9.91 1.25
 -3 -5 -3 8.96 5.22
 -3 -5 -3 10.67 1.17
 -3 -5 -3 8.73 1.37
 3 -5 3 8.56 1.47
 3 -5 3 9.98 1.06
 -3 -5 -3 9.29 0.86
 3 5 3 8.87 1.4
 3 -5 3 12.68 2
 3 -5 3 9.2 1.18
 -3 -5 -4 0.75 3.53
 3 -5 4 0.25 1.93
 -3 -5 -4 0.03 1
 3 -5 4 0.86 1.2
 3 -5 4 0.21 1.43
 3 5 4 0.96 1.45
 3 -5 4 -0.69 0.85
 -3 -5 -4 0.29 1.27
 -3 -5 -5 5.87 2.72
 3 -5 5 4.08 6.81
 -3 -5 -5 5.41 1.13
 -3 -5 -5 5.36 1.33
 3 -5 5 6.57 2.23
 3 5 5 6.6 1.63
 3 -5 5 5.05 1.26
 -3 -5 -6 0.41 2.47
 3 -5 6 2.6 5.54
 -3 -5 -6 0.54 1.29
 3 5 6 0.78 1.72
 -3 -5 -6 0.97 1.03
 3 -5 6 0.18 1.24
 3 -5 6 -8.48 17.56
 3 -5 6 0.72 1.19
 3 -5 7 5.93 1.35
 -3 -5 -7 6.62 1.4
 3 -5 7 6.86 1.33
 3 5 7 7.33 1.95
 -3 -5 -7 6.92 1.16
 3 -5 7 7.15 0.83
 3 -5 8 2.86 0.75
 3 -5 8 -3.71 9.21
 3 5 8 1.37 2.19
 3 -5 8 1.29 1.22
 3 -5 8 1.05 1.3
 3 5 9 6.13 0.84
 3 -5 9 6.99 0.89
 3 -5 9 -0.14 20.91
 3 -5 9 7.38 1.31
 3 -5 9 2.18 9.81
 3 -5 9 5.55 1.42
 3 5 9 5.76 3.31
 3 -5 10 10.97 1.51
 3 -5 10 3.04 9.18
 3 5 10 9.3 6.03
 3 -5 10 9.68 1.01
 3 5 10 12 0.98
 3 -5 11 16.1 1.63
 3 5 11 15.58 1.17
 3 -5 11 30.19 19.72
 3 -5 11 13.44 6.43
 3 5 11 22.44 10.27
 3 -5 11 16.24 1.2
 3 -5 12 13.8 14.71
 3 5 12 6.51 0.9
 3 -5 12 7.88 1.29
 3 5 12 6.3 14.17
 3 -5 12 7.37 0.95
 3 -5 12 6.82 1.46
 3 -5 13 0.61 0.78
 3 -5 13 1.5 1.35
 3 -5 13 1.51 1.22
 3 5 13 1.52 0.78
 3 -5 14 1.78 0.81
 3 -5 14 2.58 1.3
 3 -5 14 3.24 1.22
 3 5 14 3.08 0.79
 3 -5 15 1.63 1.29
 3 5 15 4.55 15.58
 3 -5 15 0.96 1.18
 3 -5 15 1.38 0.76
 3 5 15 0.68 0.72
 3 -5 16 0.59 1.24
 3 -5 16 1.57 1.16
 3 5 16 0.15 0.68
 3 5 17 -0.03 0.63
 3 5 18 0.19 0.57
 3 5 18 0.45 1.32
 -3 -5 -18 -0.4 0.8
 3 -5 18 0.2 1.02
 3 5 19 3.79 0.55
 -3 7 14 1.98 6.19
 -3 -7 13 0.89 0.9
 3 -7 -13 0.78 0.98
 -3 7 13 -0.12 3.79
 3 -7 -13 0.21 0.78
 -3 -7 13 0.44 0.54
 -3 -7 12 0.33 2.29
 -3 -7 12 1.12 1.05
 3 -7 -12 0.91 1.05
 3 -7 -12 0.72 1.5
 3 7 -12 0.55 1.71
 3 -7 -12 4.5 5.64
 -3 7 12 0.4 1.63
 3 -7 -12 1.42 0.86
 3 -7 -11 0.55 0.9
 3 7 -11 2.56 2.34
 3 -7 -11 -0.21 1.59
 -3 -7 11 -5 2.93
 3 -7 -11 0.43 1.1
 3 -7 -11 2.62 4.04
 -3 7 11 0.82 1.21
 3 -7 -10 1.19 1.16
 -3 -7 10 1.23 2.02
 3 -7 -10 -0.71 2.42
 -3 7 10 2.44 1.26
 -3 -7 10 2.6 1.1
 3 -7 -10 1.74 0.98
 3 -7 -10 1.1 1.69
 -3 -7 9 0.21 1.09
 3 -7 -9 0.09 0.95
 3 -7 -9 0.11 1.22
 -3 -7 9 -1.49 4.46
 3 -7 -9 0.31 1.41
 3 -7 -9 0.3 1.74
 -3 -7 8 0.78 1.12
 3 -7 -8 1.37 1.79
 -3 -7 8 37.14 16.15
 -3 -7 8 0.27 0.61
 3 -7 -8 0.43 1.22
 3 7 -8 36.29 28.03
 3 -7 -8 0.42 1.08
 -3 -7 8 -1.88 6.55
 3 -7 -7 1.41 1.82
 3 -7 -7 -0.31 1.26
 3 -7 -7 0.2 1.15
 -3 -7 7 1.19 1.13
 -3 -7 7 0.74 0.6
 -3 -7 6 2.7 0.69
 3 -7 -6 2.28 1.3
 -3 -7 6 3.94 8.57
 -3 -7 6 2.15 1.16
 3 -7 -6 2.59 1.84
 3 -7 -5 2.84 1.91
 -3 -7 5 3.06 0.68
 3 -7 -5 1.68 1.33
 -3 -7 5 1.89 1.16
 -3 -7 4 3.4 1.18
 3 -7 -4 3.26 1.38
 -3 -7 4 7.91 7.56
 3 -7 -4 3.83 1.2
 -3 -7 4 3.19 0.68
 -3 -7 3 2.11 0.65
 3 -7 -3 1.12 1.34
 -3 -7 3 1.6 1.14
 -3 -7 3 4.96 5.79
 3 -7 -3 2.19 1.17
 3 -7 -2 3.58 2.02
 -3 -7 2 5.57 0.76
 -3 -7 2 4.12 1.15
 -3 -7 2 4.46 3.67
 3 -7 -2 4.6 1.44
 3 -7 -2 3.6 1.28
 3 -7 -1 3.09 3.36
 -3 -7 1 3.04 9.71
 -3 -7 1 2.72 1.12
 -3 -7 1 2 2.09
 3 -7 -1 4.04 1.7
 -3 -7 1 2.83 0.68
 3 -7 -1 3.77 1.48
 3 -7 0 14.68 8.18
 -3 -7 0 13.05 10.18
 -3 -7 0 9.07 0.85
 3 -7 0 8.88 1.56
 -3 -7 0 6.93 1.62
 3 -7 0 10.48 3.43
 3 -7 1 20.63 15.52
 -3 -7 -1 13.9 11.55
 -3 -7 -1 1.12 1.43
 3 -7 1 0.7 1.71
 3 -7 1 1.49 5.83
 3 -7 2 20.46 20.8
 -3 -7 -2 19.22 12.81
 -3 -7 -2 0.62 1.36
 3 -7 2 0.43 3.27
 -3 -7 -3 -5.81 13.61
 -3 -7 -3 0.26 1.37
 3 -7 3 -3.42 6.2
 3 -7 3 2.91 21.18
 -3 -7 -4 1.6 13.67
 -3 -7 -4 0.66 1.33
 3 -7 4 2.16 8.42
 3 -7 4 1.16 17.97
 3 -7 5 0.71 11.39
 3 -7 5 -0.13 1.13
 -3 -7 -5 0.42 1.26
 3 -7 5 -6.5 9.31
 -3 -7 -5 -3.35 13.08
 -3 -7 -6 3.93 11.67
 3 -7 6 0.38 1.12
 3 -7 6 2.99 11.26
 3 -7 6 26.86 19.22
 3 -7 6 0.47 9.7
 3 7 6 -0.64 8.29
 -3 -7 -6 -0.3 1.25
 3 -7 7 -0.75 1.14
 -3 -7 -7 0.53 1.2
 3 -7 7 -4.97 9.52
 3 -7 7 2.78 21.12
 3 7 7 0.2 8.97
 3 -7 8 10.94 7.73
 3 7 8 9.17 9.4
 3 -7 9 5.33 16.81
 -3 -7 -9 0.98 1.14
 3 -7 9 0.02 4.84
 3 7 9 10.46 9.07
 3 -7 9 0.22 1.08
 3 -7 10 1.98 1.06
 -3 -7 -10 2.04 1.08
 3 -7 11 17.27 6.2
 3 -7 11 -0.6 1
 3 7 12 710.53 20.75
 3 7 12 -28.78 22.72
 4 0 -25 0.4 0.47
 -4 0 24 0.01 1.1
 4 0 -24 0.96 0.59
 -4 0 24 0.55 1.01
 -4 0 23 0.7 1.14
 4 0 -23 0.02 0.68
 -4 0 23 -0.59 1.19
 -4 0 22 8.78 1.41
 -4 0 22 7.94 1.31
 -4 0 22 8.89 1.34
 4 0 -22 5.84 0.95
 -4 0 21 0.19 1.25
 -4 0 21 -0.2 1.33
 -4 0 21 -0.29 1.29
 -4 0 21 -0.09 0.71
 -4 0 20 18.2 1.66
 -4 0 20 18.04 1.24
 -4 0 20 19.17 1.66
 -4 0 20 18.27 1.66
 -4 0 19 -1.55 1.3
 -4 0 19 -0.89 1.33
 -4 0 19 -1.36 1.35
 -4 0 19 0.33 0.79
 -4 0 18 1.41 1.36
 -4 0 18 2 1.36
 -4 0 18 2.29 0.79
 -4 0 18 2.28 1.39
 -4 0 17 0.04 1.26
 -4 0 17 -0.69 0.81
 -4 0 17 0.17 1.32
 -4 0 17 0.3 1.33
 -4 0 16 46.88 2.43
 -4 0 16 46.89 2.47
 4 0 -16 50.04 2.23
 4 0 -16 44.12 2.31
 -4 0 16 49.02 2.45
 4 0 -15 0.4 0.68
 -4 0 15 -0.48 1.01
 -4 0 15 -0.64 1.25
 4 0 -15 -1.16 2.21
 -4 0 15 -0.04 1.23
 -4 0 15 0.15 1.21
 4 0 -15 0.08 0.74
 -4 0 14 4.11 1.03
 4 0 -14 2.76 0.72
 -4 0 14 2.41 1.19
 4 0 -14 1.78 0.73
 -4 0 14 2.32 1.24
 -4 0 13 -0.17 1.17
 4 0 -13 -0.1 0.67
 -4 0 13 0.46 0.97
 4 0 -13 1.85 2.16
 4 0 -13 0.68 0.62
 4 0 -12 17.62 1.07
 -4 0 12 16.4 1.43
 4 0 -12 15.92 1.09
 -4 0 12 17.54 1.27
 4 0 -11 -0.06 0.65
 -4 0 11 -0.36 1.14
 4 0 -11 -0.03 0.57
 4 0 -11 0.24 2.14
 -4 0 11 0.3 0.95
 -4 0 10 3.35 0.99
 4 0 -10 4.67 2.12
 -4 0 10 2.89 1.12
 -4 0 10 2.96 1.08
 4 0 -10 2.94 0.67
 4 0 -10 2.98 0.61
 -4 0 9 0.07 0.76
 4 0 -9 -0.23 0.6
 -4 0 9 -0.65 0.95
 -4 0 9 -0.3 0.87
 -4 0 9 -0.87 1.09
 4 0 -8 70.28 3.07
 -4 0 8 77.83 3.5
 -4 0 8 77.24 3.12
 -4 0 8 73.11 3.43
 -4 0 7 -0.26 0.68
 -4 0 7 0.2 0.96
 4 0 -7 0.23 0.59
 -4 0 6 76.67 3.14
 -4 0 6 76.75 3.52
 -4 0 5 0.32 0.54
 4 0 -5 0.14 0.52
 -4 0 5 -0.19 1.01
 4 0 -4 33.27 1.47
 -4 0 4 30.34 1.89
 -4 0 4 32.07 1.46
 4 0 -3 -0.48 1
 -4 0 3 0.09 0.54
 4 0 -3 -0.51 0.51
 -4 0 2 1363.52 50.4
 4 0 -2 1322.78 50.4
 4 0 -2 1369.73 50.74
 -4 0 2 1351.25 50.75
 4 0 -1 0.19 0.99
 -4 0 1 -1.09 1.26
 -4 0 1 -0.13 0.4
 4 0 -1 -0.17 0.44
 4 0 0 9999 372.8
 4 0 0 9941.49 373.17
 -4 0 0 9986.6 372.8
 4 0 1 -0.35 0.36
 -4 0 -1 0.24 0.36
 4 0 2 7.15 0.43
 4 0 2 6.36 1.12
 -4 0 -2 5.49 0.42
 -4 0 -3 -0.01 0.31
 4 0 3 0.26 1.03
 4 0 3 0.03 0.28
 4 0 4 103.33 3.95
 4 0 4 115.5 4.58
 4 0 5 -0.1 0.25
 4 0 5 -0.03 1.07
 4 0 6 58.44 2.21
 4 0 6 56.63 2.22
 4 0 7 0.09 1.14
 4 0 7 -0.03 0.18
 4 0 7 -0.13 1.15
 4 0 7 0.15 0.18
 4 0 8 90.87 3.99
 4 0 8 83.43 3.53
 4 0 8 85.75 3.63
 4 0 8 84.45 3.63
 4 0 8 87.31 3.45
 4 0 9 -0.1 1.08
 4 0 9 0.31 1.21
 4 0 9 -0.14 1.08
 4 0 9 0.38 1.14
 4 0 9 -0.1 1.08
 4 0 9 0.33 1.18
 4 0 9 -0.39 0.55
 4 0 10 9.91 0.79
 4 0 10 10.09 1.18
 4 0 10 10.13 1.19
 4 0 10 9.75 1.23
 4 0 10 9.26 1.31
 4 0 11 -0.36 1.08
 4 0 11 0.65 1.12
 4 0 11 -0.17 1.07
 4 0 11 -0.06 1.2
 4 0 11 -0.22 0.59
 4 0 12 3.48 1.14
 4 0 12 3.63 1.14
 4 0 12 2.84 1.33
 4 0 12 3.71 1.32
 4 0 12 3.38 0.68
 4 0 13 0.49 1.17
 4 0 13 -0.41 1.33
 4 0 13 0.67 1.31
 4 0 13 0.45 0.63
 4 0 14 8.77 0.87
 4 0 14 8.86 1.51
 4 0 14 7.27 1.43
 4 0 15 -0.49 0.7
 4 0 15 1.05 1.36
 4 0 15 -0.54 1.37
 4 0 16 29.26 1.61
 4 0 16 32.96 2.06
 4 0 16 30.3 2.06
 4 0 17 -0.16 1.44
 4 0 17 0.28 1.35
 4 0 17 -0.37 0.71
 4 0 17 -0.14 1.39
 4 0 18 1.44 1.36
 4 0 18 -0.13 1.39
 4 0 18 0.25 1.43
 4 0 18 0.17 0.68
 4 0 19 -0.66 0.75
 4 0 19 0.21 1.36
 4 0 19 0.07 1.38
 4 0 19 -0.68 1.42
 4 0 20 23.2 1.71
 4 0 20 17.5 1.22
 4 0 20 20.53 1.77
 4 0 20 20.28 1.77
 4 0 21 0.44 1.26
 4 0 21 -0.02 1.3
 4 0 21 0.43 1.34
 4 0 22 2.12 1.13
 4 0 22 3.53 1.27
 4 0 22 2.88 1.19
 4 0 23 0.04 0.94
 4 0 23 0.18 0.99
 4 0 23 -0.2 1.01
 4 -2 -24 1.97 0.55
 4 2 -24 2.11 0.55
 -4 -2 24 1.67 0.98
 -4 -2 23 1.47 0.99
 -4 -2 23 1.12 1.11
 -4 -2 23 0.58 1.08
 -4 2 23 -0.14 0.55
 4 2 -23 0.25 0.6
 -4 -2 22 1.61 1.16
 -4 -2 22 0.97 1.22
 -4 -2 22 -0.15 1.22
 -4 2 22 0.63 1.21
 -4 2 22 0.44 0.66
 4 2 -22 -0.02 0.68
 -4 -2 22 0.58 1.1
 -4 2 21 2.69 1.31
 -4 -2 21 1.68 1.29
 -4 -2 21 1.45 1.31
 -4 -2 21 1.64 1.24
 -4 -2 21 2.23 0.81
 -4 2 21 1.12 0.74
 4 2 -21 2.66 0.8
 -4 2 20 3.05 1.36
 -4 2 20 3.83 1.23
 -4 -2 20 2.89 1.37
 -4 -2 20 2.94 1.41
 -4 -2 20 2.61 1.32
 -4 -2 20 2.65 0.86
 -4 2 19 1.69 1.22
 -4 -2 19 1.07 1.35
 -4 -2 19 0.2 1.3
 -4 2 19 0.04 1.33
 -4 -2 19 0.91 0.84
 -4 2 18 8 1.29
 -4 -2 18 7.07 1.46
 -4 -2 18 7.59 1
 -4 2 18 7.36 1.44
 -4 -2 18 7.07 0.89
 4 2 -17 22.19 2.45
 -4 -2 17 17.14 1.65
 -4 2 17 17.28 1.52
 -4 -2 17 19.59 1.34
 4 -2 -17 18.89 2.08
 4 -2 -16 0.57 0.87
 -4 2 16 1.52 1.23
 -4 -2 16 2.77 1.39
 4 2 -16 3.75 2.28
 -4 -2 16 2.55 0.9
 4 -2 -15 106.97 4.44
 -4 -2 15 108.32 4.48
 4 -2 -15 104.92 4.45
 4 2 -15 106.57 4.73
 4 -2 -14 33.63 1.76
 4 -2 -14 30.04 1.71
 4 2 -14 36.6 2.57
 4 -2 -13 0.17 0.77
 -4 -2 13 -0.28 1.02
 4 2 -13 -0.34 2.17
 4 -2 -13 0.02 0.7
 -4 -2 12 23.32 1.57
 -4 -2 12 25.4 1.39
 4 -2 -12 26.14 1.45
 4 2 -12 25.58 2.43
 -4 -2 12 23.86 1.7
 4 -2 -12 28.07 1.44
 4 -2 -12 25.22 1.42
 4 -2 -11 17.72 1.16
 4 -2 -11 17.48 1.15
 -4 -2 11 22.77 2.9
 4 2 -11 18.22 2.28
 -4 -2 11 18.73 1.13
 -4 -2 11 16.45 1.46
 4 -2 -11 18.88 1.17
 4 -2 -10 4.75 0.74
 -4 -2 10 4.07 0.65
 -4 -2 10 4.16 1.16
 -4 -2 10 4.8 2.7
 4 2 -10 5.95 2.56
 4 -2 -10 3.75 0.75
 -4 -2 9 25.81 1.53
 -4 -2 9 27.7 1.37
 -4 -2 9 31.85 2.82
 -4 -2 9 23.84 1.44
 -4 -2 9 27.04 1.65
 -4 -2 9 26.29 1.63
 4 -2 -9 29.62 1.42
 4 -2 -9 25.71 1.38
 -4 -2 8 36.55 1.91
 -4 -2 8 41.63 1.81
 -4 -2 8 41.24 2.01
 -4 -2 8 38.34 1.9
 4 -2 -8 37.76 1.79
 -4 2 8 42.25 1.9
 -4 -2 8 41.48 2.01
 4 -2 -8 40 1.82
 4 -2 -8 38.05 1.8
 4 -2 -7 27.93 1.45
 -4 -2 7 28.63 1.59
 -4 2 7 32.99 1.55
 -4 -2 7 30.57 1.77
 -4 2 7 28.68 2.12
 -4 -2 7 30.86 1.67
 4 -2 -7 33.93 1.49
 -4 2 7 28.21 2.12
 4 -2 -6 5.5 0.7
 -4 2 6 4.99 0.69
 4 2 -5 57.87 2.51
 4 2 -5 55.76 2.8
 -4 2 5 57.19 3.09
 -4 -2 5 60.77 2.5
 -4 2 5 55.85 3.05
 -4 2 5 57.32 2.45
 -4 2 4 -0.16 0.56
 4 2 -4 0.6 1.04
 -4 -2 4 -0.19 0.59
 -4 2 4 -0.48 1.07
 -4 2 4 0.04 1.06
 4 2 -4 0.04 0.76
 4 2 -3 -0.45 1.16
 -4 2 3 0.21 1.1
 -4 -2 3 0.48 0.6
 -4 2 3 0.11 0.99
 -4 2 3 0.29 0.48
 -4 2 2 8.36 0.63
 -4 2 2 8.27 1.16
 -4 -2 2 9.25 0.78
 -4 2 2 6.64 1.18
 4 2 -2 9.77 1.72
 -4 2 1 27.29 1.79
 -4 2 1 25.19 1.2
 -4 2 1 29.03 1.86
 -4 -2 1 28.86 1.36
 4 2 -1 29 1.39
 -4 2 0 8.74 1.2
 -4 2 0 10.27 0.56
 -4 2 0 8.9 1.08
 -4 2 0 9.06 0.67
 -4 -2 0 10.3 0.79
 4 2 0 10.11 0.81
 -4 2 -1 19.46 1.32
 -4 2 -1 19.87 1.48
 -4 -2 -1 20.72 1.1
 4 2 1 20.92 1.1
 -4 2 -1 19.72 0.83
 -4 2 -1 16.64 0.88
 -4 -2 -2 2.76 0.65
 -4 2 -2 2.97 0.81
 4 2 2 2.81 0.61
 -4 2 -2 1.89 0.92
 -4 2 -3 2.27 0.95
 -4 -2 -3 1.89 0.67
 -4 2 -3 2.28 0.83
 4 2 3 2.2 0.6
 -4 2 -4 -0.23 0.72
 4 2 4 0.78 0.6
 4 2 5 115.01 4.37
 4 -2 5 99.8 4.43
 4 2 5 116.84 4.72
 4 2 5 112.12 4.4
 4 2 6 1.01 0.59
 4 -2 6 1.21 0.56
 4 -2 6 1.39 1.04
 4 -2 6 1.24 1.11
 4 2 6 1.45 1.18
 4 2 6 0.93 0.57
 4 -2 6 1.22 1.12
 4 -2 7 1.23 1.06
 4 -2 7 0.92 1.17
 4 -2 7 1.3 1.12
 4 2 7 1.97 1.21
 4 -2 7 1.59 0.61
 4 -2 7 1.36 1.15
 4 -2 7 1.13 1.14
 4 2 7 1.82 1.11
 4 2 7 1.55 0.59
 4 -2 8 22.58 1.52
 4 -2 8 21.62 1.43
 4 -2 8 20.67 1.48
 4 -2 8 21.24 1.43
 4 2 8 22.75 1.57
 4 2 8 16.32 3.36
 4 -2 8 19.12 1.5
 4 2 8 20.92 1.48
 4 -2 8 19.59 1.51
 4 -2 8 19.46 1.15
 4 2 8 20.95 1.19
 4 -2 8 21.47 1.52
 4 -2 9 27.64 1.71
 4 -2 9 29.13 1.72
 4 -2 9 26.8 1.64
 4 -2 9 26.31 1.65
 4 2 9 27.95 1.71
 4 -2 9 26.49 1.42
 4 -2 9 27.57 1.75
 4 -2 9 26.37 1.74
 4 2 9 31.16 1.78
 4 2 9 28.38 1.45
 4 -2 10 -0.09 1.14
 4 -2 10 -0.27 1.1
 4 -2 10 -0.2 1.15
 4 -2 10 0.05 1.23
 4 2 10 0.22 1.2
 4 2 10 -3.07 6.69
 4 -2 10 -0.72 1.23
 4 -2 10 0.36 0.64
 4 -2 10 0.25 1.23
 4 2 10 0.61 1.28
 4 2 10 0.63 0.69
 4 -2 11 0.3 1.28
 4 -2 11 -0.31 1.21
 4 -2 11 0.4 1.21
 4 -2 11 0.15 1.14
 4 -2 11 0.34 1.27
 4 2 11 -0.89 9.08
 4 2 11 1.12 1.3
 4 -2 11 -0.31 0.67
 4 2 11 0.96 1.26
 4 -2 11 -0.1 1.29
 4 -2 12 33 1.95
 4 -2 12 32.27 1.89
 4 -2 12 34.57 1.97
 4 -2 12 30.81 2.02
 4 -2 12 34.76 2.03
 4 2 12 29 10.69
 4 -2 12 31.55 2.02
 4 2 12 33.66 1.97
 4 2 12 34.53 2.04
 4 -2 13 4.69 1.32
 4 -2 13 3.99 1.33
 4 -2 13 3.16 1.35
 4 2 13 1.94 10.56
 4 -2 13 3.2 1.22
 4 -2 13 2.74 1.41
 4 2 13 3.51 1.31
 4 -2 13 3.91 1.4
 4 2 13 3.6 1.39
 4 2 14 -0.02 1.35
 4 -2 14 0.35 1.28
 4 2 14 0.23 0.79
 4 -2 14 -0.15 1.33
 4 -2 14 -0.93 1.44
 4 -2 14 0.23 1.43
 4 2 14 -1.26 1.43
 4 -2 15 55.37 2.74
 4 -2 15 57.04 2.77
 4 -2 15 55.8 2.84
 4 2 15 54.33 2.73
 4 -2 15 55.81 2.71
 4 -2 15 51.77 2.8
 4 2 15 51.99 2.8
 4 2 15 53.76 2.56
 4 -2 16 13.41 1.54
 4 -2 16 13.57 1.58
 4 2 16 14.82 2.07
 4 -2 16 12.77 1.61
 4 -2 16 12.38 1.46
 4 -2 16 11.27 1.65
 4 2 16 13.6 1.58
 4 -2 16 14.4 1.66
 4 2 16 12.35 1.66
 4 2 16 13.72 1.18
 4 -2 17 7.61 1.6
 4 -2 17 8.36 1.44
 4 2 17 9.74 1.59
 4 -2 17 7.71 1.35
 4 -2 17 10.41 1.52
 4 -2 17 8.39 1.47
 4 -2 17 7.94 1.55
 4 2 17 7.96 1.55
 4 2 17 8.36 1.01
 4 -2 18 7.55 1.43
 4 -2 18 5.67 1.38
 4 -2 18 6.92 1.42
 4 -2 18 5.8 1.49
 4 2 18 6.01 1.53
 4 -2 18 6.27 1.55
 4 2 18 8.17 0.97
 4 2 19 0.96 0.8
 4 -2 19 -0.46 1.27
 4 -2 19 -0.18 1.31
 4 -2 19 0.43 1.4
 4 2 19 -0.04 1.35
 4 -2 19 -0.1 1.39
 4 -2 19 0.34 1.23
 4 -2 20 1.34 1.34
 4 -2 20 1.83 1.34
 4 2 20 1.31 1.34
 4 -2 20 0.57 1.32
 4 2 20 0.14 0.71
 4 -2 21 0.31 0.66
 4 -2 21 0.04 1.19
 4 -2 21 0.21 1.23
 4 2 21 -0.25 1.21
 4 2 21 0.06 0.62
 4 2 22 0.14 0.51
 4 -2 22 0.23 0.58
 4 -2 22 0.29 1.1
 4 -2 22 0.36 1.04
 4 4 -22 -0.04 0.44
 -4 4 22 0.37 0.45
 -4 4 21 0.51 0.97
 -4 -4 21 -0.78 1.05
 -4 -4 21 -0.08 0.54
 -4 -4 21 0.08 0.98
 4 4 -21 -0.12 0.54
 -4 4 21 -0.29 0.54
 4 -4 -20 1.01 0.53
 -4 4 20 0.41 1.08
 -4 -4 20 1.47 1.17
 -4 -4 20 0.14 0.62
 -4 -4 20 0.16 1.12
 4 4 -20 0.38 0.63
 -4 4 20 0.86 0.65
 -4 -4 19 0.13 1.15
 -4 -4 19 0.28 1.21
 -4 4 19 0.89 1.15
 -4 -4 19 -0.07 1.28
 4 -4 -19 0.02 0.59
 -4 -4 19 -0.13 0.69
 -4 4 19 0.62 0.7
 -4 -4 18 1.26 1.22
 -4 -4 18 0.67 0.77
 -4 -4 18 1.06 1.3
 -4 4 18 0.73 1.19
 4 -4 -18 0.93 0.61
 -4 -4 18 0.3 1.29
 4 -4 -18 0.6 0.81
 -4 4 18 0.2 0.76
 4 -4 -17 3.92 0.96
 -4 -4 17 6.39 1.4
 -4 4 17 4.34 1.3
 4 -4 -17 3.28 0.76
 -4 -4 17 4.6 1.37
 4 -4 -17 5.39 1.85
 -4 4 16 25.74 1.79
 -4 -4 16 26.12 1.57
 4 4 -16 32.83 2.53
 -4 -4 16 26.77 1.92
 -4 -4 16 26.95 1.73
 4 -4 -16 26.03 1.62
 4 -4 -16 26.63 2.26
 4 -4 -15 7.77 1.11
 4 4 -15 10.2 2.31
 -4 -4 15 8.37 1.27
 -4 -4 15 10.03 1.5
 4 -4 -15 10.09 2
 -4 4 15 7.77 1.38
 -4 -4 15 7.44 1.04
 4 -4 -14 1.87 1.02
 -4 -4 14 7.93 3.08
 4 -4 -14 5.81 2
 4 -4 -14 4.71 1.07
 4 4 -14 7.85 2.35
 -4 -4 14 6.39 1.22
 -4 4 14 5.98 1.32
 -4 -4 14 6.54 1.44
 4 -4 -14 5.06 1.19
 -4 -4 14 4.74 0.9
 -4 4 13 2.62 1.29
 -4 -4 13 3.33 1.22
 4 -4 -13 1.43 0.95
 4 -4 -13 3.12 1.91
 -4 -4 13 1.85 0.84
 4 -4 -13 2.03 1.11
 4 4 -13 3.63 2.29
 -4 -4 13 2.63 1.38
 -4 -4 13 2.36 0.8
 4 -4 -13 2.05 1.19
 4 -4 -12 1.53 0.88
 4 -4 -12 1.83 1.86
 -4 -4 12 3.03 0.84
 -4 -4 12 11.14 5.6
 4 -4 -12 2.83 1.14
 -4 -4 12 2.02 1.55
 4 4 -12 4.11 7.2
 4 -4 -12 3.46 1.2
 -4 -4 12 2.27 1.31
 -4 -4 12 2.34 0.82
 -4 4 12 2.7 1.26
 4 -4 -11 1.17 0.85
 -4 -4 11 1.72 0.79
 4 -4 -11 1.37 1.14
 -4 -4 11 0.54 3.25
 4 -4 -11 0.96 1.86
 -4 -4 11 1.43 1.29
 -4 -4 11 0.54 0.76
 4 -4 -11 0.15 1.15
 4 -4 -10 -0.03 0.74
 4 -4 -10 0.11 0.73
 4 -4 -10 0.24 1.89
 -4 -4 10 3.26 5.22
 4 -4 -10 -0.47 0.84
 -4 -4 10 0.42 0.7
 -4 -4 10 0.19 1.25
 4 -4 -10 -0.13 1.13
 -4 -4 10 0.27 0.75
 4 -4 -9 1.1 0.72
 4 -4 -9 1.06 0.76
 -4 -4 9 1.1 0.74
 -4 -4 9 1.47 1.2
 -4 -4 9 -1.09 5.9
 4 -4 -9 0.81 0.79
 4 -4 -9 0.43 1.11
 4 -4 -9 0.35 1.9
 4 -4 -8 10.54 0.93
 -4 -4 8 11.42 0.91
 -4 -4 8 10.56 0.98
 -4 -4 8 11.3 1.31
 -4 -4 8 6.17 5.23
 4 -4 -8 10.55 1.27
 4 -4 -8 10.7 1.96
 4 -4 -8 10.63 1
 4 -4 -7 0.14 1.79
 4 -4 -7 0.99 0.69
 -4 -4 7 1.86 3.67
 4 -4 -7 0.02 0.68
 4 -4 -7 -0.06 1.09
 4 -4 -6 12.1 0.9
 -4 -4 6 11.67 2.92
 4 -4 -6 11.88 0.97
 -4 -4 5 6.62 2.26
 -4 -4 5 10.42 2.1
 4 -4 -5 10.41 1.14
 4 -4 -5 10.06 0.92
 4 -4 -4 21.18 1.35
 -4 -4 4 20.76 1.68
 4 -4 -4 17.82 1.14
 4 -4 -4 19.01 1.16
 -4 -4 3 28.14 1.75
 -4 -4 3 21.4 8.96
 4 -4 -3 22.87 1.48
 4 -4 -3 23.64 1.29
 -4 -4 3 26.21 1.33
 4 -4 -3 23.87 1.34
 4 -4 -3 26.76 2.12
 4 -4 -2 1.95 0.93
 4 -4 -2 2.33 0.66
 -4 -4 2 2.64 1.22
 4 -4 -2 2.07 0.59
 -4 -4 2 2.6 0.62
 -4 -4 2 -3.86 10.97
 4 -4 -2 3.46 1.76
 4 -4 -1 11.36 1.83
 -4 -4 1 12.83 11.66
 -4 -4 1 10.96 1.07
 4 -4 -1 10.64 1.08
 4 -4 -1 9.74 1.28
 -4 -4 1 10.18 1.32
 -4 -4 1 10.65 0.84
 4 -4 -1 9.76 0.77
 4 -4 -1 9.98 0.86
 4 -4 0 1.39 0.63
 -4 -4 0 1.37 0.92
 4 -4 0 1.3 0.93
 4 -4 0 1.38 0.55
 -4 -4 0 1.6 1.16
 4 -4 0 0.95 0.51
 -4 -4 0 1.09 0.62
 4 -4 0 0.68 1.73
 4 -4 0 2.24 1.14
 4 -4 1 22.59 1.93
 4 -4 1 16.86 1.04
 4 -4 1 19.11 1.36
 -4 -4 -1 19.75 1.47
 4 -4 1 18.47 1.44
 4 4 1 19.75 1.49
 -4 -4 -1 18.03 1.12
 4 -4 1 17.67 1.01
 -4 -4 -1 19.67 1.28
 4 -4 1 17.28 1.09
 -4 -4 -2 -1.71 9.23
 -4 -4 -2 0.82 0.9
 4 -4 2 0.2 0.59
 -4 -4 -2 0.47 1.16
 4 -4 2 0.76 1.15
 4 4 2 1.18 1.4
 4 -4 2 1.13 1.05
 4 -4 2 0.73 0.85
 4 -4 2 1.12 0.6
 4 -4 2 -0.21 1.72
 4 -4 3 23.35 1.9
 -4 -4 -3 13.8 7.67
 -4 -4 -3 19 1.3
 -4 -4 -3 19.37 1.49
 4 -4 3 21.2 1.5
 4 -4 3 17.21 1.2
 4 4 3 17.54 1.76
 4 -4 3 19.28 1.42
 4 -4 3 18.31 1.11
 4 -4 4 24.53 1.94
 -4 -4 -4 20.19 1.52
 4 -4 4 20.95 1.58
 4 4 4 19.64 1.94
 -4 -4 -4 19.74 1.37
 4 -4 4 21.01 1.49
 4 -4 4 21.49 1.18
 4 -4 5 9.43 1.33
 -4 -4 -5 10.51 1.31
 4 -4 5 9.91 2.65
 4 4 5 10.67 0.85
 4 4 5 10.49 2.02
 4 -4 5 10.71 1.29
 4 -4 5 10 0.83
 4 4 6 3.15 0.67
 4 -4 6 2.89 1.24
 4 -4 6 3.44 1.17
 4 -4 6 4.44 5.52
 4 4 6 3.23 2.24
 4 -4 6 2.97 0.65
 4 -4 6 2.81 0.66
 4 -4 7 4.88 1.29
 4 -4 7 4.02 0.68
 4 -4 7 1.38 6.85
 4 4 7 1.99 2.67
 4 -4 7 4.01 0.73
 4 4 7 5.01 0.77
 4 -4 7 5.09 1.22
 4 -4 8 9.42 1.39
 4 -4 8 11.36 7.97
 4 4 8 7.41 3.69
 4 -4 8 7.85 0.88
 4 4 8 8.32 0.89
 4 -4 9 1.72 7.54
 4 -4 9 1.16 1.29
 4 -4 9 1.25 0.72
 4 4 9 -4.35 5.8
 4 4 9 1.86 0.78
 4 -4 10 2.52 1.34
 4 4 10 -3.02 9.08
 4 -4 10 2.31 1.27
 4 -4 10 1.79 0.79
 4 4 10 2.85 0.79
 4 -4 11 0.93 1.33
 4 -4 11 -0.43 1.2
 4 -4 11 0.8 0.81
 4 4 11 0.1 0.77
 4 -4 12 2.43 1.23
 4 -4 12 2.61 1.35
 4 -4 12 2.96 0.89
 4 4 12 3.11 0.83
 4 -4 13 -0.2 1.22
 4 -4 13 0.68 0.84
 4 -4 13 1.68 1.33
 4 4 13 0.22 0.8
 4 4 14 5.8 0.96
 4 -4 14 5.21 1.3
 4 4 14 5.97 16.85
 4 -4 14 5.98 1.46
 4 -4 14 4.58 0.92
 4 -4 15 1.94 1.39
 4 -4 15 2.42 1.22
 4 4 15 2.65 0.86
 4 -4 16 4.16 1.36
 4 4 16 3.68 0.84
 4 -4 17 2.82 1.29
 4 4 17 2.58 2.45
 4 -4 17 1.91 1.22
 4 -4 17 0.99 1.27
 4 4 17 1.54 0.77
 4 4 18 2.24 1.37
 4 4 18 1.83 0.74
 4 -4 18 1.63 1.13
 4 4 19 -1.01 1.03
 4 -4 19 -0.22 1.01
 4 4 19 0.35 0.62
 4 4 20 0.11 0.53
 -4 -6 17 0.57 0.52
 -4 -6 17 0.55 0.94
 4 -6 -17 0.55 0.94
 4 -6 -16 2.65 0.83
 -4 6 16 1.01 3.89
 4 -6 -16 1.31 0.54
 -4 -6 16 3.46 0.96
 4 -6 -16 1.57 1.03
 -4 -6 16 2.74 1.06
 4 -6 -15 1.13 1.56
 4 -6 -15 0.37 0.9
 -4 -6 15 -1.02 1.16
 -4 -6 15 0.4 1
 -4 6 15 0.24 1.3
 4 -6 -15 0.21 0.56
 -4 -6 14 0.93 1.06
 4 -6 -14 0.18 0.82
 4 -6 -14 0.1 0.96
 4 -6 -14 1.17 0.63
 4 -6 -14 0.53 1.66
 -4 -6 13 2.43 1.12
 -4 -6 13 1.89 2.68
 4 -6 -13 2.55 0.97
 4 6 -13 1.65 2.04
 4 -6 -13 1.31 0.7
 4 -6 -13 2.78 1.01
 4 -6 -13 2.27 1.75
 4 -6 -12 7.05 1.17
 -4 -6 12 11.44 3.21
 4 -6 -12 7.17 1.14
 4 6 -12 9.62 2.63
 4 -6 -12 6.04 1.84
 4 -6 -12 6.38 0.84
 -4 -6 12 7.32 1.19
 -4 -6 11 28.84 1.6
 4 -6 -11 23.88 1.72
 -4 -6 11 29.37 7.53
 -4 -6 11 24.11 2.38
 4 -6 -11 28.27 1.77
 4 6 -11 25.44 11.13
 -4 -6 11 29.64 1.76
 4 -6 -11 29.73 2.28
 4 -6 -10 0.14 1.88
 4 -6 -10 -0.29 1.1
 -4 -6 10 -0.32 0.78
 4 -6 -10 -0.82 1.34
 -4 -6 10 -0.09 4.46
 4 -6 -10 0.4 1.22
 -4 -6 10 -0.77 1.17
 -4 -6 9 31.68 1.66
 4 -6 -9 28.64 1.81
 4 -6 -9 24.06 1.93
 4 -6 -9 30.64 1.93
 -4 -6 9 20.82 6.93
 4 -6 -9 27.35 1.62
 4 -6 -9 31.08 1.81
 4 -6 -9 29.6 2.36
 4 -6 -8 1.58 1.95
 4 -6 -8 0.25 1.11
 -4 -6 8 5.97 17.35
 4 -6 -8 -0.82 1.39
 -4 -6 8 0.12 8.18
 4 -6 -8 1.05 1.31
 -4 -6 8 0.02 0.79
 4 -6 -8 1.24 0.78
 4 -6 -8 0.29 1.12
 -4 -6 7 0.71 0.79
 4 -6 -7 1.86 1.15
 4 -6 -7 0.41 1.36
 -4 -6 7 -1.13 8.52
 4 -6 -7 1.54 1.4
 4 -6 -7 1.22 0.73
 4 -6 -7 1.85 1.87
 -4 -6 6 -2.36 14.06
 4 -6 -6 1.19 1.39
 -4 -6 6 -4.16 7.77
 4 -6 -6 0.38 1.4
 4 -6 -6 0.63 0.75
 -4 -6 6 0.55 0.83
 4 -6 -6 0.34 0.73
 4 -6 -6 0.61 1.13
 4 -6 -5 -0.23 1.14
 -4 -6 5 -9.32 13.52
 4 -6 -5 -0.14 1.13
 -4 -6 5 0.21 0.76
 4 -6 -5 0.25 1.37
 -4 -6 5 1.63 6.33
 4 -6 -5 0.25 0.69
 4 -6 -5 -0.84 0.71
 4 -6 -4 2.18 1.18
 -4 -6 4 9.45 11.02
 4 -6 -4 2.56 1.16
 4 -6 -4 2.34 1.41
 -4 -6 4 4.51 4.59
 4 -6 -4 2.52 1.36
 4 -6 -4 2.18 0.71
 4 -6 -3 0.42 1.39
 -4 -6 3 1.04 2.55
 4 -6 -3 0.45 1.28
 4 -6 -3 0.79 1.21
 4 -6 -3 -0.36 1.97
 -4 -6 2 19.61 8.11
 4 -6 -2 21.79 1.79
 -4 -6 2 22.22 2.03
 4 -6 -2 19.26 1.64
 4 -6 -2 20.44 1.6
 4 -6 -2 24.07 2.32
 4 -6 -1 4.08 2.06
 -4 -6 1 3.35 9.86
 4 -6 -1 3.23 1.45
 -4 -6 1 4.3 1.54
 4 -6 -1 4.52 1.24
 4 -6 -1 4.17 1.22
 4 -6 0 150.38 6.12
 -4 -6 0 153.54 6.12
 4 -6 0 146.51 6.03
 4 -6 0 149.34 6
 4 -6 0 148 6.25
 4 -6 1 1.18 2.03
 -4 -6 -1 5.09 1.49
 4 -6 1 2.85 1.52
 4 -6 1 0.91 1.09
 -4 -6 -1 3.15 0.74
 4 -6 1 0.8 1.15
 4 -6 2 0.41 2.09
 -4 -6 -2 0.53 1.39
 4 -6 2 0.33 1.53
 4 -6 2 -0.26 1.05
 -4 -6 -2 -0.6 0.65
 4 -6 2 0.2 1.12
 -4 -6 -3 -3.79 16.46
 4 -6 3 0.15 5.5
 -4 -6 -3 -0.13 1.41
 4 -6 3 0.28 2.43
 4 -6 3 -0.13 0.95
 -4 -6 -3 0.82 0.68
 4 -6 3 0.4 1.22
 4 -6 4 6.41 1.29
 4 -6 4 -11.15 16.6
 -4 -6 -4 -2.15 16.33
 -4 -6 -4 7.24 1.2
 -4 -6 -4 6.01 1.43
 4 -6 4 0.89 5.73
 4 6 4 4.41 6.69
 -4 -6 -4 5.1 0.81
 4 -6 5 -7.23 21.47
 -4 -6 -5 -3.31 15.82
 -4 -6 -5 0.09 1.06
 4 -6 5 -0.12 1.24
 -4 -6 -5 0.02 1.34
 4 -6 5 -0.25 8.66
 4 6 5 -5.79 7.92
 -4 -6 -5 -0.13 0.69
 4 -6 6 1.98 1.29
 -4 -6 -6 3.14 1.11
 -4 -6 -6 2.43 1.36
 4 -6 6 -4.6 9.67
 -4 -6 -6 1.43 0.73
 -4 -6 -7 0.87 1.05
 4 -6 7 0.93 1.25
 -4 -6 -7 0.77 1.3
 4 -6 7 4.78 10.19
 -4 -6 -7 1.24 0.72
 4 6 7 3.34 10.76
 -4 -6 -8 -0.9 1.06
 4 -6 8 -6.54 23.93
 -4 -6 -8 0.14 1.26
 4 -6 8 -0.74 1.26
 4 -6 8 -2.8 9.91
 -4 -6 -8 -0.02 0.65
 4 6 8 17.25 12.4
 4 -6 9 29.23 1.57
 -4 -6 -9 31.8 1.8
 4 -6 9 34.61 1.93
 -4 -6 -9 26.88 1.63
 4 6 9 36.58 13.71
 -4 -6 -10 -0.19 1
 4 -6 10 0.14 0.68
 -4 -6 -10 1.61 0.74
 4 6 10 -7.76 13.89
 4 -6 10 -0.67 1.22
 -4 -6 -11 5.76 1.06
 4 -6 11 5.83 0.79
 4 -6 11 25.89 11.51
 4 6 11 16.86 19.67
 -4 -6 -11 5.6 0.81
 4 6 11 14.07 12.68
 4 -6 11 7.3 1.31
 -4 -6 -12 1.84 0.95
 4 -6 12 2.39 0.67
 4 -6 12 3.28 4.72
 4 -6 12 1.08 1.15
 -4 -6 -12 1.3 0.66
 4 6 13 -0.62 20.03
 -4 -6 -13 0.39 0.87
 4 -6 13 -0.29 0.62
 -4 -6 -13 -0.05 0.6
 4 -6 14 1.53 0.59
 -4 -6 -14 0.28 0.57
 4 6 14 -1.66 3.36
 4 6 14 4.22 10.77
 4 -6 15 -0.22 1.02
 -4 -6 -15 -0.08 0.48
 4 -8 -5 10.49 12.57
 4 -8 -4 -0.7 13.82
 -4 -8 4 1.86 4.02
 4 -8 -3 -0.84 14.8
 -4 -8 3 2.37 5.1
 4 -8 -2 10.63 14.85
 -4 -8 2 4.31 5.64
 4 -8 -1 -10.47 14.19
 -4 -8 1 -0.01 6.02
 4 -8 0 9.06 11.81
 -4 -8 0 1.63 5.8
 5 -1 -24 1.14 0.54
 -5 -1 24 2.29 1.02
 -5 -1 24 2.38 0.97
 -5 1 24 2.11 1.01
 5 -1 -23 0.02 0.64
 -5 -1 23 0.34 0.98
 -5 1 23 0.61 1.07
 -5 -1 23 0.87 1.18
 -5 1 23 0.83 1.15
 5 1 -23 0.87 0.64
 -5 -1 23 1.61 1.11
 -5 1 23 0.56 0.54
 5 -1 -22 -0.02 0.69
 -5 1 22 1.24 1.16
 -5 -1 22 0.52 1.23
 -5 -1 22 0.22 1.19
 -5 -1 22 0.52 0.68
 -5 1 22 0.06 1.23
 -5 1 22 0.24 0.59
 5 1 -22 0.34 0.7
 5 -1 -21 0.23 0.77
 -5 1 21 0.28 1.22
 -5 -1 21 0.13 1.28
 -5 -1 21 0.62 1.29
 -5 -1 21 0.74 0.75
 -5 1 21 0.29 1.27
 5 1 -21 -0.84 0.78
 -5 1 20 9.12 1.37
 -5 -1 20 8.59 1.4
 -5 -1 20 10.31 1.45
 -5 -1 20 7.8 1
 -5 1 20 8.07 1.47
 5 1 -20 7.13 1.03
 5 -1 -20 8.59 1.07
 5 -1 -19 1.14 0.89
 -5 1 19 1.42 1.28
 -5 -1 19 1.73 1.27
 -5 -1 19 1.38 1.33
 -5 1 19 2.07 1.29
 -5 -1 19 2.53 0.87
 -5 -1 19 1.99 1.33
 5 1 -19 0.77 0.87
 -5 1 18 1.04 0.75
 -5 1 18 1.88 1.28
 -5 -1 18 3.11 1.39
 5 1 -18 0.29 0.85
 -5 -1 18 1.24 0.82
 -5 -1 18 2.22 1.35
 -5 1 18 0.81 1.29
 5 -1 -18 1.1 0.83
 -5 -1 18 2.12 1.28
 5 -1 -17 10.34 1.09
 -5 1 17 11.42 1.46
 -5 -1 17 11.18 1.4
 -5 -1 17 11.36 1.48
 5 1 -17 11.81 2.38
 -5 -1 17 12.15 1.14
 -5 -1 17 10.68 1.5
 -5 1 17 9.53 1.44
 5 -1 -17 10.08 1.07
 5 1 -17 6.48 1.12
 5 -1 -16 3.41 0.88
 -5 -1 16 3.03 1.28
 -5 -1 16 2.1 1.33
 5 -1 -16 2.63 0.89
 5 1 -16 4.99 2.31
 -5 -1 16 2.11 1.35
 -5 1 16 3.34 1.29
 5 1 -16 2.85 0.87
 5 -1 -15 2.6 0.88
 -5 -1 15 0.07 1.05
 -5 -1 15 -0.06 1.21
 -5 -1 15 -0.33 1.3
 -5 -1 15 -0.28 1.27
 5 1 -15 -0.41 2.28
 5 -1 -15 3.11 0.89
 5 1 -15 0.18 0.72
 -5 1 15 3.38 1.28
 -5 -1 14 8.25 1.14
 -5 -1 14 8.27 1.33
 -5 -1 14 9.1 1.38
 -5 1 14 9.34 1.29
 -5 1 14 7.92 1.11
 5 1 -14 10.31 2.25
 5 -1 -14 9.02 0.96
 5 -1 -14 9.17 0.97
 5 1 -14 7.53 0.92
 5 -1 -13 10.61 0.98
 -5 1 13 9.59 1.3
 -5 1 13 9.21 1.11
 -5 -1 13 10.15 1.19
 5 1 -13 11.9 2.27
 5 -1 -13 10.05 0.94
 -5 -1 13 11.3 1.38
 5 1 -13 9.87 0.91
 5 -1 -12 0.62 0.71
 -5 1 12 0.17 0.94
 -5 -1 12 0.61 1.01
 5 1 -12 -0.01 2.15
 -5 1 12 0.23 1.12
 5 -1 -12 1.25 0.68
 -5 -1 12 0.61 1.18
 5 -1 -12 0.77 0.67
 5 -1 -11 25.69 1.45
 -5 -1 11 27.66 1.62
 -5 -1 11 28.53 1.43
 5 -1 -11 29.1 1.47
 5 1 -11 31.54 2.43
 -5 -1 11 30.3 1.75
 -5 1 11 27.05 1.66
 5 -1 -11 27.94 1.45
 5 1 -10 7.15 0.74
 -5 -1 10 6.78 1.06
 -5 -1 10 7.13 0.71
 5 -1 -10 7.41 0.78
 5 1 -10 7.98 2.16
 -5 -1 10 6.79 1.21
 -5 1 10 7.97 1.14
 5 -1 -10 6.91 0.73
 5 -1 -10 7 0.79
 5 -1 -9 32.27 1.55
 -5 1 9 31.18 1.66
 -5 -1 9 32.61 1.49
 5 -1 -9 31.89 1.51
 5 1 -9 30.3 1.48
 5 -1 -9 34.94 2.52
 -5 -1 9 32.27 1.8
 -5 1 9 30.04 1.71
 -5 -1 9 30.65 1.67
 5 -1 -9 31.84 1.54
 -5 1 8 2.41 1.18
 5 -1 -8 2.63 0.67
 -5 -1 8 2.55 0.54
 5 -1 -8 2.96 0.64
 5 1 -8 5.33 2.15
 5 -1 -8 5.85 2.17
 5 1 -8 2.67 0.62
 -5 -1 8 2.87 0.74
 -5 1 8 2.56 1.1
 -5 -1 8 2.35 1.1
 -5 1 8 2.78 0.75
 -5 1 8 2.01 1.03
 5 -1 -7 37.31 1.73
 -5 1 7 32.57 2.3
 -5 1 7 40.59 1.83
 -5 1 7 37.13 2.42
 -5 -1 7 38.28 1.95
 5 -1 -7 37.5 1.71
 -5 -1 7 40.22 1.83
 5 -1 -6 1.75 0.62
 5 -1 -6 2.2 0.64
 -5 1 6 1.68 1.08
 -5 -1 6 1.91 0.73
 -5 -1 6 2.02 1.08
 5 1 -6 2.38 1.02
 -5 1 6 1.7 0.63
 -5 1 6 0.88 1.19
 5 1 -5 12.31 1.34
 -5 1 5 13.09 0.9
 5 1 -5 13.23 0.94
 -5 -1 5 13.17 0.91
 -5 1 4 24.69 1.25
 5 1 -4 24.47 1.32
 -5 1 4 24.95 1.88
 5 1 -4 25.22 1.78
 -5 -1 4 27.21 1.31
 -5 -1 3 4.29 0.65
 -5 1 3 4.51 0.62
 -5 1 3 5.38 1.23
 5 1 -3 5.7 0.75
 5 1 -3 4.47 1.2
 5 1 -2 2.32 0.66
 -5 1 2 1.72 0.49
 -5 1 2 1.06 1.1
 -5 -1 2 2.11 0.56
 5 1 -2 2.11 1.16
 -5 1 1 114.75 4.6
 5 1 -1 123.77 4.69
 -5 1 1 120.86 5.2
 5 1 -1 123.67 5.23
 -5 -1 1 121.07 4.67
 -5 1 0 13.47 1.52
 -5 -1 0 15.41 0.87
 5 1 0 16.93 0.96
 -5 1 0 13.99 0.76
 5 1 0 15.51 1.66
 -5 1 -1 7.51 1.3
 5 1 1 9.31 1.53
 -5 -1 -1 9.78 0.7
 -5 1 -1 8.22 0.48
 5 1 1 9.22 0.79
 5 -1 2 2.4 1.09
 -5 -1 -2 2.75 0.52
 5 1 2 2.34 0.54
 5 1 3 14.51 2
 -5 -1 -3 16.4 0.94
 5 -1 3 18.79 1.47
 5 1 3 17.41 0.93
 5 1 4 13.66 2.31
 5 1 4 15.91 0.95
 5 1 4 15.64 0.89
 5 -1 4 16.5 1.44
 5 -1 5 2.24 1.11
 5 1 5 1.68 0.48
 5 -1 5 1.14 1
 5 1 5 1.84 0.59
 5 -1 5 1.61 1.14
 5 -1 5 1.07 1.12
 5 1 5 1.86 1.16
 5 1 5 2.11 1.22
 5 1 5 1.75 2.59
 5 -1 6 45.72 2.16
 5 1 6 40.04 3.56
 5 1 6 47.42 2.24
 5 -1 6 41.21 2.37
 5 1 6 47.66 1.99
 5 -1 6 39.87 2.18
 5 1 6 44.09 2.2
 5 -1 6 45.03 2.19
 5 -1 6 44.44 2.18
 5 1 7 0.26 1.25
 5 -1 7 0.35 1.14
 5 1 7 0.45 1.19
 5 -1 7 -0.67 0.97
 5 -1 7 -0.06 1.16
 5 -1 7 0.54 1.07
 5 1 7 0.42 1.07
 5 -1 7 -0.14 1.16
 5 1 7 0.15 0.59
 5 -1 7 0.37 1.19
 5 1 7 0.73 2.96
 5 -1 8 8.03 1.22
 5 -1 8 6.81 1.25
 5 1 8 7.79 1.29
 5 -1 8 6.95 1.3
 5 1 8 7 2.24
 5 -1 8 7.83 1.12
 5 1 8 7.17 1.18
 5 1 8 7.95 0.76
 5 1 8 8.04 1.35
 5 -1 8 7.78 0.69
 5 -1 8 7.54 1.29
 5 1 8 7.59 0.77
 5 1 9 68.67 2.85
 5 -1 9 67.76 2.98
 5 1 9 69.08 2.94
 5 -1 9 70.61 2.97
 5 1 9 60.44 3.4
 5 -1 9 63.23 3.05
 5 1 9 65.77 3.02
 5 -1 9 67.48 3.03
 5 1 9 68.27 3.07
 5 -1 9 66.05 3.05
 5 1 9 65.11 2.84
 5 -1 9 66.89 2.76
 5 -1 10 29.35 1.8
 5 -1 10 30.89 1.48
 5 -1 10 29.9 1.9
 5 1 10 30.75 1.56
 5 1 10 27.16 2.26
 5 1 10 29.77 1.89
 5 1 10 33.95 1.82
 5 -1 10 31.53 1.8
 5 1 10 31.16 1.94
 5 -1 10 30.15 1.92
 5 1 10 31.56 1.59
 5 -1 11 39.02 2.1
 5 1 11 39.86 2.36
 5 1 11 39.97 2.22
 5 -1 11 38.83 2.06
 5 1 11 39.31 2.19
 5 1 11 40.7 2.11
 5 -1 11 39.71 2.18
 5 1 11 39.57 1.89
 5 -1 11 35.69 2.19
 5 1 11 38.48 1.89
 5 -1 12 1.77 1.19
 5 1 12 0.86 1.26
 5 -1 12 2.15 1.23
 5 -1 12 1.41 1.27
 5 1 12 2.93 1.62
 5 1 12 2.28 1.32
 5 1 12 1.32 0.71
 5 -1 12 0.92 1.37
 5 1 12 1.74 1.33
 5 1 12 1.24 0.74
 5 -1 13 0.3 1.18
 5 -1 13 0.26 1.24
 5 1 13 0.39 1.38
 5 1 13 0.38 1.55
 5 1 13 0.11 1.29
 5 -1 13 1.07 1.33
 5 1 13 0.27 1.39
 5 1 13 -0.95 0.73
 5 -1 13 0.27 1.4
 5 1 13 -0.31 0.75
 5 -1 14 15.64 1.56
 5 1 14 15.5 1.58
 5 -1 14 15.96 1.49
 5 1 14 18.14 1.74
 5 -1 14 15.5 1.61
 5 1 14 15.08 1.68
 5 1 14 15.85 1.17
 5 -1 14 17.45 1.71
 5 1 14 17.35 1.7
 5 1 14 15.08 1.19
 5 1 15 6.98 0.89
 5 -1 15 6.34 1.34
 5 -1 15 5.32 1.4
 5 -1 15 8.16 1.44
 5 1 15 5.86 1.45
 5 1 15 6.87 1.44
 5 1 15 5.76 1.5
 5 -1 15 7.04 1.53
 5 1 15 5.94 1.46
 5 1 15 7.14 0.94
 5 -1 16 0.43 1.31
 5 -1 16 -0.24 1.33
 5 -1 16 0.1 1.22
 5 1 16 0.29 1.34
 5 1 16 0.33 0.72
 5 1 16 -0.11 1.43
 5 -1 16 0.35 1.38
 5 -1 16 -0.22 1.46
 5 1 16 -1.72 1.33
 5 1 16 0.46 0.81
 5 1 17 0.46 1.47
 5 1 17 0.04 1.36
 5 -1 17 -0.67 1.32
 5 -1 17 1.01 1.43
 5 1 17 0.27 1.35
 5 -1 17 -0.09 1.46
 5 1 17 0.24 0.76
 5 -1 18 5.36 1.47
 5 1 18 4.32 1.37
 5 1 18 3.74 1.44
 5 -1 18 3.29 1.5
 5 -1 18 5.38 1.4
 5 1 18 3.74 1.44
 5 1 18 3.96 0.83
 5 -1 19 1.23 1.47
 5 -1 19 0.55 0.77
 5 -1 19 1.15 1.28
 5 1 19 1.07 1.36
 5 1 19 1.03 0.7
 5 -1 19 0.81 1.41
 5 1 19 0.6 1.29
 5 -1 19 -0.34 1.32
 5 1 19 -0.88 1.42
 5 1 20 0.63 1.22
 5 -1 20 0.56 1.24
 5 -1 20 1.25 1.33
 5 -1 20 -0.31 1.23
 5 1 20 0.41 1.27
 5 -1 20 0.29 0.72
 5 1 20 0.5 1.34
 5 -1 20 0.13 1.35
 5 1 20 0.88 0.64
 5 1 21 1.59 1.18
 5 -1 21 2.18 0.68
 5 1 21 1.9 1.13
 5 -1 21 1.84 1.25
 5 -1 21 2.77 1.11
 5 -1 21 1.54 1.18
 5 -1 22 -0.07 1.09
 5 -1 22 -0.39 0.52
 5 1 22 0.47 0.99
 -5 3 23 0.27 0.87
 5 3 -23 0.19 0.44
 -5 -3 22 1.71 1.06
 5 -3 -22 1.7 0.62
 -5 -3 22 0.96 0.96
 -5 3 22 1.04 1.01
 -5 -3 22 1.66 1.07
 -5 3 22 1.41 0.57
 5 3 -22 0.85 0.56
 -5 -3 21 1.25 1.14
 5 -3 -21 0.78 0.67
 -5 -3 21 0.85 1.08
 -5 3 21 0.32 1.09
 -5 -3 21 0.49 1.18
 5 -3 -21 0.64 0.51
 5 3 -21 0.89 0.65
 5 -3 -20 1.72 0.8
 -5 -3 20 1.41 1.21
 -5 3 20 1.81 1.17
 -5 -3 20 1.44 1.28
 -5 -3 20 1.27 1.25
 5 3 -20 0.79 0.73
 5 -3 -19 2.35 0.86
 -5 -3 19 2.73 1.31
 -5 3 19 4.55 1.23
 -5 -3 19 2.97 1.33
 -5 -3 19 4.5 1.36
 5 -3 -19 3.17 1.77
 -5 -3 19 3.13 0.75
 5 3 -19 4.13 0.85
 5 -3 -18 0.34 0.86
 -5 3 18 0.29 1.24
 -5 -3 18 0.02 1.32
 5 -3 -18 1.14 1.84
 5 3 -18 1.99 2.22
 -5 -3 18 -0.08 1.34
 5 3 -18 0.44 0.81
 5 -3 -17 -0.17 0.88
 -5 -3 17 0.48 1.39
 -5 3 17 1.28 1.25
 5 3 -17 0.2 2.28
 -5 -3 17 0.91 1.36
 -5 -3 17 0.42 0.82
 5 3 -17 0.22 0.8
 -5 -3 16 258.65 10.86
 -5 3 16 288.47 10.86
 5 3 -16 280.64 10.85
 -5 -3 16 275.37 10.9
 5 -3 -16 262.89 10.85
 5 -3 -16 304.38 10.92
 -5 3 15 16.45 1.54
 5 3 -15 19.05 2.43
 -5 -3 15 17.32 1.3
 -5 -3 15 15.77 1.64
 5 -3 -15 15.65 1.32
 5 -3 -15 17.62 2.16
 -5 -3 14 87.75 3.85
 5 3 -14 86.37 4.22
 5 -3 -14 91.53 4.14
 -5 -3 14 92.25 3.97
 -5 -3 14 89.36 3.8
 -5 -3 14 87.54 3.86
 5 -3 -14 90.96 3.85
 -5 -3 13 4.91 1.36
 -5 -3 13 4.38 0.87
 5 -3 -13 3.18 0.87
 -5 -3 13 4.11 0.85
 5 3 -13 5.32 2.25
 5 -3 -13 3.61 0.94
 5 -3 -13 3.36 1.15
 5 -3 -13 3.85 1.93
 5 -3 -12 38.58 1.99
 -5 -3 12 39.64 2.08
 -5 -3 12 40.37 2.01
 5 3 -12 37.35 2.79
 -5 -3 12 43.74 2.24
 5 -3 -12 41.96 2.6
 5 -3 -12 38.35 2.09
 5 -3 -12 38.81 2.02
 5 -3 -12 39.61 2.04
 -5 -3 12 45.19 3.42
 5 -3 -11 7.43 0.88
 5 -3 -11 6.55 0.92
 -5 -3 11 7.3 1.15
 -5 -3 11 8.01 0.87
 -5 -3 11 7.91 1.37
 5 3 -11 7.28 2.7
 5 -3 -11 7.63 0.97
 5 -3 -11 6.29 1.91
 5 -3 -10 19.7 2.1
 5 -3 -10 21.69 1.31
 -5 -3 10 21.25 1.48
 -5 -3 10 21.45 1.31
 -5 -3 10 20.39 1.61
 5 3 -10 21.43 8.27
 -5 -3 10 23.34 1.64
 5 -3 -10 22.58 1.32
 5 -3 -10 21.58 1.37
 -5 -3 9 0.29 0.99
 -5 -3 9 0.19 0.62
 5 -3 -9 -0.74 0.71
 -5 -3 9 -0.03 1.21
 5 -3 -9 -0.19 0.74
 -5 -3 9 0.16 1.19
 5 -3 -9 0.68 0.71
 5 -3 -9 -0.37 1.82
 5 -3 -8 8.92 0.86
 -5 -3 8 7.3 1.11
 -5 -3 8 8.49 1.4
 -5 -3 8 9.06 1.29
 5 -3 -8 8.45 0.86
 5 -3 -8 9.16 0.91
 5 -3 -8 8.28 1.92
 5 -3 -7 43.8 1.98
 -5 -3 7 42.9 2.08
 5 -3 -7 41.2 1.89
 -5 -3 7 44.99 2.29
 5 -3 -7 40.61 1.95
 5 -3 -7 46.23 2.05
 -5 -3 7 48.26 2.19
 5 -3 -6 31.81 1.54
 -5 -3 6 31.7 1.68
 5 -3 -6 30.8 1.46
 -5 -3 6 32.72 2.02
 -5 -3 6 35.41 1.79
 5 -3 -6 31.01 1.56
 -5 -3 5 41.55 1.92
 5 -3 -5 37.83 1.76
 -5 -3 5 42.26 2.36
 5 -3 -5 37.36 1.82
 5 -3 -5 41.97 1.83
 5 -3 -5 36.65 2.41
 -5 -3 5 43.71 2.01
 -5 -3 4 0.68 0.89
 -5 -3 4 -0.01 1.47
 5 -3 -4 0.39 0.49
 -5 -3 4 0.72 1.05
 5 -3 -4 0.43 0.58
 5 -3 -4 0.47 1.69
 5 -3 -3 0.54 0.57
 -5 -3 3 0.77 0.6
 -5 -3 3 0.96 1.44
 5 -3 -3 0.74 0.64
 5 -3 -3 0.6 0.59
 5 -3 -3 1.07 0.51
 -5 -3 3 1.09 1.03
 5 -3 -3 1.12 1.68
 5 -3 -2 6.11 0.73
 -5 -3 2 6.23 1.54
 5 -3 -2 5.94 0.65
 5 -3 -2 6.61 0.69
 -5 -3 2 6.07 0.71
 -5 -3 2 7.72 1.07
 5 -3 -2 9.28 1.72
 5 -3 -1 0.71 0.61
 -5 -3 1 -1.13 1.78
 5 -3 -1 0.08 0.55
 5 -3 -1 0.05 0.58
 -5 -3 1 1.03 0.8
 -5 -3 1 0.12 0.6
 5 -3 -1 0.07 1.64
 5 -3 0 47.09 2.15
 5 -3 0 48.06 2.22
 5 -3 0 44.71 2.11
 5 -3 0 48.98 2.09
 5 -3 0 55.89 2.56
 -5 -3 0 50.98 2.26
 -5 -3 0 49.7 2.12
 -5 -3 0 52.19 2.3
 -5 -3 0 45.11 2.99
 5 -3 1 1.73 1.58
 5 -3 1 1.83 1.04
 5 -3 1 0.96 0.62
 5 -3 1 1.06 0.57
 -5 -3 -1 1.1 0.73
 -5 -3 -1 1.71 0.99
 5 3 1 1.58 2.11
 -5 -3 -1 0.91 0.49
 5 3 1 1.28 0.56
 5 -3 1 1.31 0.62
 5 -3 2 1.54 0.62
 5 -3 2 1.62 0.66
 -5 -3 -2 1.58 0.53
 -5 -3 -2 1.97 0.98
 5 3 2 0.63 2.19
 5 -3 2 1.01 1.03
 5 3 2 2 0.59
 5 -3 3 14.84 1.29
 -5 -3 -3 15 1.2
 5 3 3 15.86 2.41
 5 3 3 14.14 0.94
 -5 -3 -3 14.32 0.89
 5 -3 4 143.36 5.75
 5 3 4 141.82 6.27
 -5 -3 -4 141.6 5.71
 -5 -3 -4 149.77 5.69
 5 3 4 145.45 5.7
 -5 -3 -5 14.07 1.19
 5 3 5 13.14 3.58
 -5 -3 -5 15.38 0.92
 5 -3 5 13.27 1.32
 5 -3 5 13.41 0.92
 5 3 5 15.3 0.99
 5 -3 6 219.27 8.4
 5 3 6 197.89 9.39
 -5 -3 -6 212.27 8.33
 5 -3 6 208.98 8.38
 5 -3 6 207.4 8.29
 -5 -3 -6 231.73 8.33
 5 -3 6 212.63 8.35
 5 3 6 218.74 8.37
 5 -3 7 0.09 1.16
 -5 -3 -7 0.65 0.98
 5 3 7 -3.36 5.82
 -5 -3 -7 0.58 0.49
 5 -3 7 1.4 1.2
 5 -3 7 0.55 0.61
 5 -3 7 0.7 1.23
 5 3 7 0.56 0.68
 5 -3 8 8.79 1.36
 5 -3 8 8.42 1.34
 5 -3 8 7.94 1.36
 -5 -3 -8 8.82 0.73
 5 3 8 11.33 7.55
 5 -3 8 8.24 0.82
 5 3 8 8.1 0.91
 5 -3 9 1.12 0.71
 5 -3 9 1.14 1.31
 5 -3 9 1.05 1.28
 5 -3 9 1.92 1.19
 5 -3 9 1.09 1.28
 5 3 9 0.91 0.72
 5 -3 10 0.75 1.2
 5 -3 10 0.16 1.32
 5 -3 10 -0.13 0.68
 5 -3 10 0.37 1.36
 5 -3 10 0.44 1.3
 5 3 10 -0.12 0.77
 5 -3 11 -1.04 1.4
 5 -3 11 0.52 1.21
 5 -3 11 -0.25 1.28
 5 3 11 -6.66 12.68
 5 -3 11 -0.09 1.31
 5 -3 11 0.36 1.39
 5 -3 11 0.23 0.75
 5 3 11 0.24 1.42
 5 3 11 -0.15 0.78
 5 -3 12 2.6 1.4
 5 -3 12 1.66 1.29
 5 -3 12 1.58 1.22
 5 -3 12 1.79 1.46
 5 -3 12 1.81 1.34
 5 3 12 2.41 1.48
 5 3 12 1.67 0.86
 5 -3 13 13.88 1.53
 5 3 13 14.15 1.67
 5 -3 13 14.78 1.66
 5 -3 13 14.75 1.68
 5 -3 13 12.51 1.53
 5 3 13 13.56 1.19
 5 -3 14 28.59 1.92
 5 -3 14 32.86 2.03
 5 -3 14 26.36 2.05
 5 3 14 30.71 2.06
 5 -3 14 27.51 1.89
 5 3 14 26.38 1.67
 5 -3 15 52.48 2.63
 5 -3 15 50.93 2.66
 5 -3 15 51.84 2.71
 5 3 15 58.57 3.6
 5 -3 15 52.25 2.75
 5 -3 15 49.15 2.58
 5 3 15 52.64 2.5
 5 -3 16 7.49 1.42
 5 -3 16 5.12 1.36
 5 3 16 7.97 1.87
 5 -3 16 5.93 1.36
 5 -3 16 7.13 1.54
 5 -3 16 6.49 1.44
 5 3 17 2.61 1.53
 5 -3 17 3.56 1.27
 5 -3 17 2.78 1.46
 5 3 18 0.13 1.25
 5 -3 18 2.87 1.36
 5 -3 18 1.72 1.19
 5 -3 19 -0.49 1.26
 5 3 19 1.05 0.7
 5 -3 20 3.27 0.69
 5 -3 20 2.86 0.7
 5 -3 20 5.82 1.2
 5 3 20 5.24 0.7
 5 3 21 0.14 0.47
 5 -3 21 0.24 0.51
 -5 -5 19 2.9 0.91
 -5 -5 19 2.5 1.04
 5 -5 -19 0.96 0.47
 -5 -5 19 2.26 0.56
 5 5 -19 3.06 0.55
 -5 5 19 2.23 0.52
 -5 -5 18 1.68 1.01
 5 -5 -18 0.39 0.81
 -5 -5 18 0.6 1.14
 -5 5 18 3.13 4.7
 5 -5 -18 -0.27 0.54
 -5 -5 18 0.85 0.62
 5 5 -18 0.63 0.59
 -5 5 18 -0.07 0.54
 -5 -5 17 3.99 1.1
 5 -5 -17 3.69 0.95
 -5 -5 17 3.51 1.23
 5 -5 -17 2.49 0.65
 -5 -5 17 4.17 1
 -5 5 17 3.36 0.66
 5 -5 -16 5.11 1.74
 -5 -5 16 4.94 1.2
 5 -5 -16 3.44 1.02
 -5 -5 16 4.75 1.28
 5 5 -16 3.79 2.02
 5 -5 -16 3 0.73
 -5 -5 16 4.99 1.12
 -5 5 16 4.3 0.74
 5 -5 -15 -0.08 1.8
 -5 -5 15 -0.17 1.1
 -5 -5 15 -0.01 1.19
 5 -5 -15 0.4 0.99
 5 5 -15 3.13 2.11
 5 -5 -15 0.37 0.67
 5 -5 -14 2.97 1.82
 5 -5 -14 1.7 1.08
 5 -5 -14 1.23 1.01
 5 5 -14 5.52 2.16
 5 -5 -14 1.24 0.75
 -5 -5 14 3.83 1.18
 5 -5 -14 2.05 1.12
 5 -5 -13 -0.95 1.91
 -5 -5 13 0.41 1.15
 5 -5 -13 -0.26 1.07
 -5 -5 13 0.02 0.75
 -5 -5 13 -3.26 2.96
 5 -5 -13 0.58 1.11
 5 5 -13 0.4 2.16
 5 -5 -13 0.89 0.73
 5 -5 -13 0.25 1.09
 5 -5 -12 5.63 1.9
 -5 -5 12 4.76 1.22
 5 -5 -12 4.51 1.16
 -5 -5 12 4.44 0.9
 -5 -5 12 2.17 3.23
 5 -5 -12 4.45 1.25
 5 5 -12 3.56 2.63
 5 -5 -12 4.11 0.81
 5 -5 -12 4.86 1.17
 -5 -5 11 18.03 1.33
 5 -5 -11 18.54 1.47
 -5 -5 11 17.49 6.82
 5 -5 -11 17.44 1.6
 -5 -5 11 17.06 2.16
 5 5 -11 14.79 9.67
 5 -5 -11 18.89 1.51
 5 -5 -11 18.69 2.11
 5 -5 -10 1.02 1.13
 5 -5 -10 1.2 1.31
 -5 -5 10 2.18 4.16
 5 -5 -10 1.6 0.78
 5 -5 -10 1.66 0.89
 5 -5 -10 2.79 1.89
 5 -5 -10 1.58 1.15
 5 -5 -9 0.58 1.14
 5 -5 -9 0.46 1.36
 -5 -5 9 -3.07 6.36
 5 -5 -9 0.19 0.68
 5 -5 -9 0.45 0.83
 5 -5 -9 0.12 1.09
 5 -5 -9 -0.62 1.82
 5 -5 -8 0.15 1.88
 5 -5 -8 0.09 1.12
 5 -5 -8 0.26 1.35
 -5 -5 8 -0.47 7.51
 5 5 -8 -15.21 29.75
 5 -5 -8 -0.21 1.13
 5 -5 -8 0.02 0.84
 5 -5 -8 -0.18 0.74
 5 -5 -7 5.99 1.19
 5 -5 -7 4.78 1.45
 -5 -5 7 2.2 7.03
 5 -5 -7 5.44 0.94
 5 -5 -7 4.51 0.81
 5 -5 -7 5.26 1.19
 5 -5 -6 2.99 1.13
 5 -5 -6 1.48 1.4
 5 -5 -6 2.05 0.84
 5 -5 -6 1.81 0.72
 5 -5 -5 0.18 1.92
 5 -5 -5 0.49 1.09
 5 -5 -5 0.19 1.36
 -5 -5 5 -2.18 3.59
 5 -5 -5 -0.28 0.8
 5 -5 -5 -0.02 0.68
 5 -5 -4 0.6 1.97
 5 -5 -4 1.92 1.13
 5 -5 -4 1.63 1.36
 5 -5 -4 1.95 0.79
 5 -5 -4 0.63 1.28
 -5 -5 4 1.48 2.74
 5 -5 -4 0.52 0.66
 5 -5 -4 2.32 1.18
 5 -5 -3 3.61 1.95
 -5 -5 3 0.02 4.73
 5 -5 -3 3.75 1.15
 5 -5 -3 3.44 0.82
 5 -5 -3 5.25 1.41
 -5 -5 3 5.33 1.95
 5 -5 -3 2.88 1.29
 5 -5 -3 2.86 0.7
 5 -5 -3 3.19 1.18
 5 -5 -2 1.54 1.93
 -5 -5 2 -4.04 3.9
 5 -5 -2 0.4 0.77
 5 -5 -2 -0.5 1.31
 -5 -5 2 -0.1 1.51
 5 -5 -2 0.04 1.2
 5 -5 -2 -0.35 0.63
 5 -5 -2 -0.6 1.18
 5 -5 -1 29.47 1.75
 -5 -5 1 22.28 5.42
 5 -5 -1 27.66 1.86
 -5 -5 1 30.04 1.93
 5 -5 -1 27.61 1.76
 5 -5 -1 24.49 1.42
 -5 -5 1 27.47 1.53
 5 -5 -1 26.11 1.49
 5 -5 -1 26.81 2.35
 -5 -5 0 23.25 7.6
 5 -5 0 24.05 1.8
 -5 -5 0 28.77 1.85
 5 -5 0 24.98 1.69
 -5 -5 0 24.93 1.45
 5 -5 0 24.79 1.67
 5 -5 0 24.19 1.43
 5 -5 0 27.68 2.3
 -5 -5 -1 71.56 3.11
 5 -5 1 70.45 3.09
 5 -5 1 64.24 2.99
 -5 -5 -1 66.28 2.97
 5 -5 1 63.92 2.99
 5 -5 1 63.87 2.89
 5 -5 1 71.92 3.37
 5 -5 2 20.79 1.28
 -5 -5 -2 25.35 1.73
 5 -5 2 23.59 1.8
 5 -5 2 22.55 1.5
 -5 -5 -2 25.04 1.43
 5 5 2 21.29 4.59
 5 -5 2 22.67 1.64
 5 -5 2 22.82 1.57
 5 -5 2 23.3 1.36
 5 -5 2 27.01 2.25
 5 -5 3 1.54 1.91
 5 -5 3 1.53 0.71
 5 -5 3 1.1 0.68
 5 -5 3 0.37 1.18
 5 -5 3 1.25 0.89
 -5 -5 -3 0.32 0.68
 5 5 3 -1.66 5.34
 5 -5 4 4 0.74
 5 -5 4 3.8 0.78
 5 -5 4 3.17 1.28
 -5 -5 -4 3.74 0.79
 5 -5 5 1.43 0.78
 -5 -5 -5 0.92 0.73
 5 5 5 -4.84 7.89
 5 -5 5 0.54 1.24
 5 -5 6 0.18 0.76
 -5 -5 -6 0.34 0.76
 5 -5 6 -0.7 1.25
 5 -5 7 -0.39 0.8
 5 5 7 -0.42 11.33
 5 -5 7 0.4 1.26
 5 -5 8 -0.06 0.82
 5 -5 8 0.66 1.27
 5 5 8 0.04 0.71
 5 -5 9 0.11 0.83
 5 -5 9 0.14 1.26
 5 5 9 0.49 0.7
 5 5 10 -0.28 0.76
 5 -5 10 0.02 0.83
 5 5 10 -7.11 14.89
 5 -5 10 0.12 1.25
 5 -5 11 5.92 8.02
 5 5 11 12.32 13.99
 5 5 11 1.74 0.76
 5 -5 12 1.1 0.85
 5 5 12 0.46 0.71
 5 -5 13 1.56 0.84
 5 5 13 1.26 0.75
 5 -5 14 1.48 0.81
 5 5 14 1.09 0.71
 5 5 14 7.7 8.86
 5 -5 15 0.54 1.16
 5 -5 15 0.78 0.71
 5 5 15 2.05 1.61
 5 5 15 0.73 0.66
 5 -5 16 1.44 1.09
 5 -5 16 0.08 0.67
 5 5 16 0.98 1.32
 5 -5 16 0.6 0.61
 5 5 16 1.06 0.6
 5 -5 17 2.97 1
 5 -5 17 3.32 0.63
 5 5 17 2.95 0.57
 5 5 17 3.3 1.07
 5 -5 17 1.45 0.55
 5 -7 -12 0.01 1.39
 -5 -7 12 1.01 0.85
 5 -7 -12 0.21 1.7
 -5 7 12 0.65 0.96
 5 -7 -11 -0.01 1.5
 5 -7 -11 0.66 0.99
 5 7 -11 0.84 1.71
 5 -7 -11 1.73 0.82
 5 -7 -10 3.19 1.59
 5 -7 -10 1.45 1.08
 5 -7 -10 2.61 0.86
 5 7 -10 4.68 1.8
 -5 -7 9 -0.36 1
 5 -7 -9 -0.45 1.64
 -5 -7 9 -0.17 0.57
 5 -7 -9 0.22 1.1
 -5 -7 9 -0.43 1.13
 5 7 -9 2.68 3.6
 5 -7 -9 -0.37 0.91
 -5 -7 8 0.28 0.65
 5 -7 -8 0.11 1.16
 -5 -7 8 -0.12 2.18
 5 -7 -8 0.94 0.99
 -5 -7 8 0.72 1.05
 -5 -7 7 -0.39 1.07
 -5 -7 7 -0.21 0.62
 5 -7 -7 0.82 1.19
 -5 -7 7 -0.76 4.13
 -5 -7 6 -0.04 0.6
 5 -7 -6 -0.23 1.23
 -5 -7 6 2.54 5.98
 5 -7 -6 -0.74 1.78
 -5 -7 6 0.89 1.03
 5 -7 -5 2.29 1.8
 -5 -7 5 1.79 0.69
 5 -7 -5 2.05 1.24
 -5 -7 5 1.45 7.18
 5 -7 -5 1.92 1.07
 -5 -7 5 2.83 1.1
 -5 -7 4 0.28 0.67
 5 -7 -4 -0.21 1.29
 -5 -7 4 -1.48 7.74
 5 -7 -4 0.67 1.04
 -5 -7 4 0.48 1.09
 5 -7 -4 0.22 1.83
 -5 -7 3 -0.2 1.08
 5 -7 -3 -0.37 1.84
 -5 -7 3 0.49 0.63
 5 7 -3 84.51 14.63
 5 -7 -3 -0.21 1.29
 -5 -7 3 -3.85 7.7
 5 7 -3 89.88 31.86
 5 -7 -3 0.25 1.03
 -5 -7 2 0.29 1.07
 5 -7 -2 0.7 1.86
 -5 -7 2 0.15 0.69
 5 -7 -2 0.88 1.36
 -5 -7 2 0.18 6.9
 5 -7 -2 0.45 1.02
 -5 -7 1 3.51 0.73
 -5 -7 1 3.84 1.08
 5 -7 -1 4.42 1.9
 -5 -7 1 3.94 6.02
 5 -7 -1 3.09 1
 5 -7 -1 3.15 3.05
 5 -7 0 4.8 8.63
 5 7 0 19.7 14.29
 5 -7 0 8.18 3.87
 -5 -7 0 8 4.98
 5 -7 0 7.43 1.08
 5 -7 1 -4.6 16.01
 -5 -7 -1 0.22 3.88
 5 -7 1 0.46 2.22
 5 -7 2 -25.92 19.6
 5 7 2 20.09 19.91
 5 -7 3 70.39 18.28
 5 7 3 51.27 21
 5 -7 4 226.34 22.2
 5 7 5 9.31 20.55
 5 7 6 123.91 17.93
 5 7 6 95.09 19.87
 5 7 7 405.05 22.54
 5 -7 8 1.68 1.02
 5 7 8 8.15 14.43
 5 -7 9 3.05 1
 5 7 9 2.5 1.1
 5 7 10 73.54 9.95
 5 7 10 -0.53 1
 6 0 -24 2.81 0.56
 -6 0 24 3.19 1.02
 6 0 -23 -0.2 0.6
 -6 0 23 0.3 1
 -6 0 23 0.03 0.98
 -6 0 23 -0.46 1.11
 6 0 -22 1.53 0.68
 -6 0 22 1.08 1.11
 -6 0 22 2.18 1.15
 -6 0 22 2.03 1.23
 -6 0 22 1.55 0.65
 -6 0 21 0.46 1.17
 -6 0 21 0.75 1.22
 -6 0 21 -0.46 0.68
 -6 0 21 -0.82 1.26
 6 0 -21 0.9 0.77
 6 0 -20 6.72 0.93
 -6 0 20 6.92 1.3
 -6 0 20 7.69 0.92
 -6 0 20 7.07 1.34
 -6 0 19 -0.52 1.28
 6 0 -19 -0.43 0.78
 -6 0 19 -0.38 0.77
 -6 0 19 0.3 1.34
 6 0 -18 3.75 0.84
 -6 0 18 3.18 1.34
 -6 0 18 4.33 1.39
 6 0 -18 3.3 0.86
 6 0 -17 0.16 0.77
 -6 0 17 0.9 1.09
 -6 0 17 -0.06 1.3
 -6 0 17 -0.14 1.3
 6 0 -17 0.02 0.74
 6 0 -16 11.35 1.03
 -6 0 16 9.94 1.28
 -6 0 16 11.65 1.49
 6 0 -16 10.38 1.08
 6 0 -15 0.04 0.76
 -6 0 15 -0.35 1.06
 6 0 -15 -2.6 2.3
 -6 0 15 -0.72 1.32
 6 0 -15 -0.02 0.76
 6 0 -14 0.43 0.76
 -6 0 14 0.6 1.07
 -6 0 14 0.82 1.27
 6 0 -14 1.5 2.23
 6 0 -14 -0.02 0.69
 6 0 -13 0.9 0.75
 -6 0 13 0.16 1.01
 6 0 -13 1.62 2.24
 6 0 -13 -0.03 0.65
 -6 0 13 0.09 1.2
 6 0 -12 53.92 2.44
 -6 0 12 56.43 2.53
 6 0 -12 61.71 3.15
 -6 0 12 53.6 2.65
 6 0 -12 54.71 2.47
 6 0 -11 0.06 0.7
 6 0 -11 0.38 2.21
 -6 0 11 0.03 1.13
 6 0 -11 0.03 0.59
 6 0 -10 750.54 27.8
 6 0 -10 712.91 27.77
 -6 0 10 723.95 27.81
 6 0 -10 760.85 27.77
 -6 0 9 0.45 1.09
 6 0 -9 0.18 0.53
 6 0 -9 0.41 0.66
 6 0 -8 0.21 0.65
 -6 0 8 0.31 0.82
 -6 0 8 -0.21 1.07
 6 0 -7 0.49 0.63
 -6 0 7 1.09 1.59
 6 0 -7 0.48 0.64
 -6 0 7 -0.41 0.71
 -6 0 7 0.48 1.04
 6 0 -6 99.66 4
 -6 0 6 100.56 4.82
 6 0 -6 99.39 4.01
 6 0 -6 105.13 4.39
 -6 0 6 97.08 4.09
 -6 0 6 104.63 4.1
 6 0 -5 0.24 0.59
 6 0 -5 0.26 0.55
 -6 0 5 0.08 0.68
 -6 0 5 0.17 1.85
 6 0 -5 0.09 0.59
 6 0 -4 36.42 1.58
 6 0 -4 31.33 1.6
 6 0 -4 33.99 1.57
 -6 0 4 35.41 1.62
 -6 0 3 0.17 0.52
 6 0 -3 -0.01 0.52
 6 0 -3 -0.84 1.11
 6 0 -2 8.13 0.7
 6 0 -2 8.06 1.41
 -6 0 2 8.8 0.69
 -6 0 1 -0.1 0.46
 6 0 -1 0.28 1.16
 6 0 -1 0.13 0.48
 -6 0 0 -0.16 0.44
 6 0 0 -0.31 0.42
 6 0 1 -0.78 1.24
 6 0 1 -0.03 0.4
 6 0 2 0.84 1.21
 6 0 2 0.84 0.51
 6 0 2 1.65 0.37
 6 0 3 0.01 0.29
 6 0 3 0.29 0.55
 6 0 3 -0.23 0.55
 6 0 3 0.38 1.14
 6 0 3 0.43 1.23
 6 0 4 0.85 1.11
 6 0 4 0.8 0.55
 6 0 4 0.61 0.56
 6 0 4 0.4 1.23
 6 0 4 0.8 1.23
 6 0 4 0.84 1.22
 6 0 4 1.51 0.62
 6 0 5 -0.14 0.58
 6 0 5 -0.11 1.26
 6 0 5 0.56 1.14
 6 0 5 0.67 1.12
 6 0 5 0.18 1.27
 6 0 5 -0.3 0.6
 6 0 5 -0.49 0.59
 6 0 5 -0.57 1.24
 6 0 6 45 2.04
 6 0 6 47.27 2.26
 6 0 6 45.43 2.81
 6 0 6 44.55 2.3
 6 0 6 46.74 2.34
 6 0 6 46.9 2.27
 6 0 6 48.62 2.1
 6 0 6 47.74 2.07
 6 0 7 -0.16 0.58
 6 0 7 -0.16 1.26
 6 0 7 0.38 1.13
 6 0 7 -0.55 1.31
 6 0 7 -0.04 1.18
 6 0 7 -0.47 0.61
 6 0 7 -1.34 1.88
 6 0 7 -0.12 0.62
 6 0 7 0.24 1.24
 6 0 8 208.73 7.98
 6 0 8 203.42 7.97
 6 0 8 205.1 8.05
 6 0 8 201.13 7.98
 6 0 8 202.83 8.05
 6 0 8 206.59 7.98
 6 0 8 205.29 7.95
 6 0 9 1.05 1.18
 6 0 9 -0.55 1.33
 6 0 9 0.19 0.64
 6 0 9 0.01 1.35
 6 0 9 0.24 1.25
 6 0 9 0.07 1.32
 6 0 9 0.02 0.66
 6 0 10 237.89 9.22
 6 0 10 236.66 9.2
 6 0 10 232.59 9.17
 6 0 10 240.82 9.29
 6 0 10 241.9 9.18
 6 0 10 229.46 9.21
 6 0 10 238.88 9.28
 6 0 11 0.1 1.31
 6 0 11 0.21 1.2
 6 0 11 0.04 1.35
 6 0 11 0.51 0.73
 6 0 11 -0.9 1.35
 6 0 11 0.25 1.39
 6 0 11 0.32 0.68
 6 0 12 3.14 1.42
 6 0 12 2.71 1.36
 6 0 12 2.6 0.75
 6 0 12 2.6 1.35
 6 0 12 2.28 0.81
 6 0 12 2.21 1.4
 6 0 13 -0.13 1.39
 6 0 13 -0.13 1.34
 6 0 13 -0.43 0.83
 6 0 13 0.43 1.35
 6 0 13 0.66 0.7
 6 0 14 0.74 0.84
 6 0 14 0.85 1.41
 6 0 14 1.7 0.75
 6 0 14 -0.09 1.37
 6 0 14 0.24 1.44
 6 0 15 -0.9 0.84
 6 0 15 -0.02 0.73
 6 0 15 -0.08 1.37
 6 0 15 -0.41 1.44
 6 0 15 -0.32 1.42
 6 0 16 1.8 0.73
 6 0 16 0.62 1.37
 6 0 16 2.31 0.86
 6 0 16 2.02 1.46
 6 0 16 1.31 1.46
 6 0 17 0.63 0.67
 6 0 17 -0.15 0.78
 6 0 17 0.09 1.36
 6 0 17 -0.24 1.46
 6 0 17 0.4 1.45
 6 0 18 3.11 1.34
 6 0 18 2.42 1.39
 6 0 18 2.65 0.81
 6 0 18 2.34 1.45
 6 0 19 0.82 0.7
 6 0 19 -0.9 1.3
 6 0 19 0.68 1.36
 6 0 20 10.09 1.33
 6 0 20 9.35 1.38
 6 0 20 11.2 1.33
 6 0 20 7.81 0.82
 6 0 21 -0.34 1.04
 6 0 21 0.29 1.13
 6 -2 -23 0.25 0.51
 -6 -2 23 0.95 0.89
 -6 2 23 -0.17 0.96
 6 2 -23 0.54 0.5
 -6 -2 23 0.65 0.99
 -6 -2 23 0.61 0.97
 -6 2 23 0.42 0.47
 6 -2 -22 -0.18 0.62
 6 2 -22 0.04 0.61
 -6 -2 22 -0.37 1.09
 -6 -2 22 -0.41 0.65
 -6 -2 22 0.41 1.12
 -6 2 22 -0.06 1.09
 -6 2 22 -0.2 0.57
 6 -2 -21 -0.26 0.69
 -6 -2 21 0.28 1.2
 -6 -2 21 0.63 0.67
 -6 2 21 1.15 1.2
 -6 -2 21 0.26 1.2
 6 2 -21 0.62 0.65
 -6 2 20 1.61 1.26
 -6 -2 20 1.46 1.23
 6 -2 -20 1.69 0.82
 -6 -2 20 2.32 0.83
 -6 -2 20 1.76 1.3
 6 2 -20 0.91 0.73
 6 -2 -20 1.64 1.7
 6 -2 -19 2.09 0.85
 -6 -2 19 1.41 1.32
 6 2 -19 3.01 2.21
 -6 -2 19 2.34 1.33
 -6 -2 19 2.09 0.87
 -6 2 19 2.54 1.32
 6 2 -19 2.19 0.78
 6 -2 -19 2.35 1.84
 6 -2 -18 1.06 0.82
 -6 2 18 0.46 1.18
 -6 -2 18 0.48 1.34
 6 2 -18 2.03 2.27
 -6 -2 18 -0.22 1.31
 -6 -2 18 -0.07 0.77
 6 2 -18 0.69 0.79
 6 -2 -18 1.24 1.88
 6 -2 -17 5.88 0.94
 6 -2 -17 5.7 0.99
 -6 2 17 5.91 1.29
 -6 -2 17 6.19 1.4
 6 2 -17 8.54 2.32
 -6 -2 17 6.84 0.99
 -6 -2 17 7.69 1.41
 6 2 -17 6 0.97
 6 -2 -17 5.57 1.95
 6 -2 -16 -0.29 0.82
 6 -2 -16 -0.36 0.91
 -6 -2 16 -0.2 1.35
 6 2 -16 -1.63 2.31
 6 2 -16 0.02 0.74
 6 -2 -15 47.61 2.28
 -6 -2 15 46.08 2.3
 6 2 -15 51.06 3
 6 2 -15 44.43 2.22
 6 -2 -15 44.31 2.28
 6 -2 -14 4.64 0.95
 -6 -2 14 6.15 1.14
 6 2 -14 6.99 2.27
 6 -2 -14 4.23 0.9
 6 -2 -13 2.92 0.81
 6 -2 -13 2.87 0.9
 -6 -2 13 3.79 1.08
 -6 -2 13 2.99 0.71
 6 2 -13 3.86 2.22
 6 -2 -13 3.59 0.83
 6 -2 -12 0.62 0.67
 6 -2 -12 0.99 0.8
 -6 -2 12 1.05 0.66
 6 2 -12 0.79 2.2
 6 -2 -12 1.21 0.77
 6 -2 -11 1.99 0.68
 6 -2 -11 1.97 0.82
 -6 -2 11 2.14 0.64
 6 2 -11 3.49 2.2
 6 -2 -11 2.31 0.77
 6 -2 -10 -0.14 0.59
 -6 -2 10 -0.04 1.03
 -6 -2 10 -0.25 0.61
 6 -2 -10 -0.41 0.7
 6 2 -10 -0.48 2.16
 -6 -2 10 -0.15 1.19
 6 -2 -9 1.04 0.59
 -6 -2 9 1.15 1
 -6 -2 9 1.42 0.59
 6 -2 -9 1.42 0.7
 -6 -2 9 1.48 1.2
 6 -2 -8 1.34 0.68
 6 -2 -8 1.81 0.63
 -6 -2 8 1.29 0.62
 -6 -2 8 2.52 1.15
 6 -2 -8 1.99 0.68
 6 -2 -7 5.08 0.76
 6 -2 -7 4.51 0.76
 6 -2 -7 4.09 0.64
 -6 -2 7 5.75 1.15
 6 -2 -6 51.68 2.38
 -6 2 6 59.5 2.49
 6 -2 -6 54 2.36
 6 -2 -6 54.82 2.41
 -6 -2 6 57.97 2.55
 6 -2 -6 56.16 2.42
 6 -2 -5 56.94 2.53
 -6 2 5 58.03 2.58
 6 -2 -5 55.43 2.5
 6 -2 -5 57.69 2.54
 6 2 -5 56.67 10.08
 6 2 -5 60.54 2.98
 -6 -2 5 61.6 2.66
 -6 -2 5 65.08 2.5
 6 -2 -5 61.21 2.55
 6 -2 -4 62.22 2.72
 6 -2 -4 63.81 2.75
 6 -2 -4 62.29 2.73
 -6 -2 4 65.28 2.86
 -6 -2 4 69.31 2.74
 6 2 -4 69.79 3.2
 -6 -2 4 69.4 2.86
 6 -2 -4 66.29 2.76
 6 -2 -3 6.94 0.75
 6 -2 -3 6.33 0.72
 6 -2 -3 7.1 0.7
 6 2 -3 8.13 1.99
 6 -2 -3 5.68 0.74
 -6 -2 3 7.51 0.82
 -6 -2 3 8.04 0.75
 -6 -2 3 7.46 0.64
 6 -2 -2 25.94 1.35
 6 -2 -2 27.38 1.36
 6 -2 -2 26.53 1.38
 -6 -2 2 30.35 1.36
 6 2 -2 27.82 1.58
 -6 -2 2 28.2 1.42
 6 2 -2 32.01 2.68
 -6 -2 2 29.02 1.47
 6 2 -2 26.69 1.33
 6 -2 -2 28.88 1.4
 6 -2 -1 48.94 2.3
 6 2 -1 55.53 2.44
 -6 -2 1 56.38 2.34
 6 -2 -1 52.98 2.32
 -6 -2 1 56.61 2.3
 -6 -2 1 54.7 2.4
 6 2 -1 52.53 2.28
 6 -2 0 0.17 0.59
 -6 -2 0 1.05 0.62
 -6 -2 0 1.45 0.62
 -6 -2 0 0.79 1
 6 2 0 1 1.2
 -6 -2 0 0.77 0.47
 6 2 0 -3.26 7.15
 6 2 0 1.65 1.12
 6 2 0 0.87 0.55
 -6 2 -1 15.03 1.8
 6 2 1 -2.63 9.19
 6 2 1 17.96 1.56
 -6 -2 -1 15.87 1.01
 6 -2 1 16.9 1.46
 -6 -2 -1 17.02 1.28
 6 2 1 17.6 1.38
 6 -2 1 15.87 1.3
 -6 -2 -1 17.05 1.1
 6 2 1 38 9.15
 6 2 1 17.09 1.01
 -6 2 -2 75.68 4
 -6 -2 -2 81.15 3.32
 6 2 2 81.81 3.5
 6 -2 2 72.52 3.41
 -6 -2 -2 78.9 3.37
 6 -2 2 81.12 3.39
 6 2 2 84.33 3.43
 6 -2 2 73.9 3.36
 -6 -2 -2 84.19 3.36
 6 2 2 83.64 3.29
 6 -2 2 81.59 3.25
 6 -2 3 -0.08 1.22
 6 2 3 0.37 1.62
 6 -2 3 0.18 0.56
 6 -2 3 0.34 1.11
 6 2 3 0.42 1.12
 6 2 3 0.48 0.6
 6 -2 4 7.37 0.82
 6 -2 4 7.19 1.29
 6 2 4 9.61 2.1
 6 -2 4 9.18 1.26
 6 2 4 9.06 0.8
 6 2 4 10.3 1.26
 6 2 5 30.2 2.82
 6 -2 5 29.37 1.77
 6 -2 5 30.03 1.83
 6 2 5 32.76 1.79
 6 -2 5 29.99 1.79
 6 2 5 29.95 1.52
 6 -2 6 9.95 1.27
 6 -2 6 9.56 1.32
 6 -2 6 9.23 1.37
 6 2 6 11.19 1.32
 6 2 6 10.98 0.9
 6 -2 7 1.17 1.14
 6 -2 7 1.67 1.23
 6 -2 7 1.67 1.27
 6 2 7 1.41 1.26
 6 2 7 1.21 0.67
 6 2 8 3.48 0.69
 6 -2 8 2.1 1.26
 6 -2 8 3.07 1.29
 6 2 8 3.3 1.28
 6 2 8 3.16 0.77
 6 -2 9 0.92 1.34
 6 2 9 -0.26 2.95
 6 2 9 0.72 0.66
 6 2 9 0.36 1.31
 6 -2 9 1.42 1.28
 6 2 9 0.43 0.66
 6 2 10 0.21 0.66
 6 2 10 -0.63 2.4
 6 -2 10 -0.17 1.18
 6 -2 10 0.43 1.35
 6 2 10 -0.55 1.34
 6 2 10 0.34 1.39
 6 2 10 -0.02 0.79
 6 -2 10 0.22 1.31
 6 -2 11 0.08 1.39
 6 -2 11 0.09 1.21
 6 2 11 0.58 0.67
 6 2 11 2.01 2.07
 6 2 11 0.02 1.37
 6 2 11 -1.99 2.49
 6 -2 11 0.13 1.34
 6 2 11 0.18 1.39
 6 2 12 0.88 1.39
 6 -2 12 1.04 1.25
 6 2 12 0.91 2
 6 -2 12 0.38 1.44
 6 -2 12 0.59 1.37
 6 2 12 0.11 0.67
 6 2 12 -0.4 1.43
 6 -2 13 1.08 1.25
 6 2 13 0.75 1.41
 6 2 13 -0.48 2.01
 6 -2 13 0.99 1.39
 6 -2 13 -0.17 1.49
 6 2 13 0.28 1.46
 6 2 13 1.09 0.87
 6 2 14 7.62 1.91
 6 -2 14 7.86 1.4
 6 -2 14 7.93 1.47
 6 -2 14 6.51 1.55
 6 2 14 6.91 1.5
 6 2 14 6.65 1.55
 6 2 14 7.09 1.01
 6 -2 15 49.12 2.49
 6 2 15 52.18 2.67
 6 -2 15 46.98 2.65
 6 2 15 49.79 2.57
 6 -2 15 47.75 2.52
 6 2 15 47.56 2.65
 6 2 15 44.11 2.34
 6 -2 16 0.05 1.26
 6 2 16 0.18 1.51
 6 2 16 0.16 1.4
 6 -2 16 0.84 1.36
 6 -2 16 0.96 1.46
 6 2 16 0.09 0.8
 6 -2 17 1.56 1.35
 6 -2 17 0.17 1.23
 6 2 17 1.33 1.3
 6 -2 17 0.34 0.9
 6 -2 17 1.56 1.45
 6 2 17 1.17 1.33
 6 2 17 0.6 0.77
 6 -2 18 0.78 0.83
 6 -2 18 1.19 0.76
 6 2 18 1.63 0.77
 6 -2 18 1.74 1.26
 6 -2 18 0.08 1.4
 6 -2 19 0.71 1.29
 6 -2 19 1.5 1.16
 6 -2 19 1.74 0.74
 6 2 19 1.78 0.69
 6 -2 20 -0.01 0.56
 6 -2 20 0.19 1.17
 6 -2 20 0.53 1.01
 6 -2 20 0.38 0.64
 6 2 20 1.05 0.59
 6 2 21 1.71 0.96
 6 -2 21 0.49 0.55
 6 -2 21 1.19 1.03
 -6 4 21 0.96 0.48
 -6 -4 20 -0.31 0.97
 -6 4 20 0.11 0.96
 -6 -4 20 0.15 1.04
 -6 -4 20 -0.85 1
 6 -4 -20 -0.22 0.48
 6 4 -20 0.67 0.53
 -6 4 20 -0.15 0.56
 6 -4 -19 0.07 1.53
 -6 -4 19 0.09 1.05
 -6 4 19 -0.04 1.05
 -6 -4 19 0.07 1.17
 6 -4 -19 0.8 0.57
 -6 -4 19 0.42 0.6
 -6 -4 19 0.69 1.09
 6 4 -19 0.09 0.57
 -6 -4 18 1.08 1.25
 -6 4 18 0.46 1.13
 6 4 -18 0.32 2.02
 6 -4 -18 0.51 0.6
 -6 -4 18 1.14 1.2
 -6 -4 18 1.01 0.7
 6 4 -18 0.81 0.67
 6 -4 -18 0.57 1.67
 -6 -4 17 1.14 1.29
 -6 4 17 1.22 1.2
 6 4 -17 1.08 2.09
 -6 -4 17 -0.02 1.25
 -6 -4 17 0.43 0.73
 6 4 -17 -0.07 0.72
 6 -4 -17 -0.32 1.77
 -6 4 16 6.59 1.31
 6 4 -16 7.33 2.19
 -6 -4 16 6 1.39
 -6 -4 16 7.23 0.93
 6 -4 -16 8.18 1.91
 6 -4 -15 0.43 0.84
 6 -4 -15 0.71 1.87
 -6 4 15 -0.59 1.25
 -6 -4 15 0.12 1.12
 6 -4 -15 -0.35 0.99
 6 4 -15 -1.4 2.2
 -6 -4 15 0.72 1.36
 -6 -4 15 0.02 0.78
 6 -4 -14 34.57 2.02
 -6 -4 14 35 1.96
 -6 4 14 37.44 2.11
 6 -4 -14 34.43 2.01
 6 4 -14 43.06 2.74
 -6 -4 14 39.42 2.2
 -6 -4 14 36.37 2.05
 -6 -4 14 38.09 1.92
 6 -4 -14 35.86 1.95
 6 -4 -14 40.59 2.54
 6 -4 -13 8.88 1.06
 6 -4 -13 9.45 1.07
 -6 -4 13 9.86 1.04
 6 4 -13 9.07 2.29
 -6 -4 13 9.29 1.04
 -6 -4 13 10.96 1.52
 6 -4 -13 8.62 1.31
 6 -4 -13 10.98 1.95
 6 -4 -12 1.66 0.83
 -6 -4 12 1.13 0.8
 6 4 -12 1.29 2.17
 6 -4 -12 2.92 0.92
 -6 -4 12 2.89 1.37
 6 -4 -12 1.5 1.16
 -6 -4 12 1.36 0.78
 6 -4 -12 2.53 1.91
 -6 -4 11 3.06 1.38
 6 -4 -11 2.05 0.84
 -6 -4 11 2.04 0.82
 6 4 -11 -2.53 2.38
 6 -4 -11 1.6 0.93
 -6 -4 11 1.74 0.75
 6 -4 -11 1.34 1.15
 6 -4 -11 1.72 1.91
 6 -4 -10 1.85 0.83
 -6 -4 10 1.57 0.82
 -6 -4 10 1.34 1.38
 6 -4 -10 1 0.87
 -6 -4 10 1.66 1.34
 -6 -4 10 1.24 0.75
 6 -4 -10 1.73 1.14
 6 -4 -10 1.28 1.84
 6 -4 -9 1.29 0.77
 -6 -4 9 2.43 0.8
 -6 -4 9 2 0.71
 -6 -4 9 -1.46 1.89
 6 4 -9 -4.8 14.6
 -6 -4 9 1.89 1.28
 6 -4 -8 2.26 0.77
 -6 -4 8 1.6 0.78
 -6 -4 8 1.33 1.24
 6 -4 -7 9.86 0.92
 -6 -4 7 9.14 1.15
 -6 -4 7 10.97 1.35
 6 -4 -7 8.65 1.92
 6 -4 -6 37.03 1.76
 -6 -4 6 31.65 2.59
 -6 -4 6 39.83 2.03
 6 -4 -6 34.34 1.88
 6 -4 -6 37.29 2.54
 6 -4 -5 11.57 0.92
 -6 -4 5 14.8 1.36
 6 -4 -5 11.38 2.02
 6 -4 -5 10.44 1.06
 6 -4 -4 0.63 1.91
 6 -4 -4 0.32 0.71
 6 -4 -4 0.1 0.57
 6 -4 -4 -0.22 0.58
 6 4 -4 -3.46 6.89
 6 -4 -3 0.85 0.76
 6 -4 -3 0.48 0.58
 6 -4 -3 0.39 0.56
 6 -4 -3 -0.31 1.86
 -6 -4 2 4.23 1.69
 6 -4 -2 4.95 0.82
 6 -4 -2 4.16 0.68
 6 -4 -2 3.74 0.62
 -6 -4 2 5.01 0.76
 6 -4 -2 4.99 1.87
 -6 -4 1 9.66 1.79
 6 -4 -1 11.22 0.9
 -6 -4 1 12.35 0.98
 6 -4 -1 11.03 0.99
 6 -4 -1 14.59 1.94
 6 -4 0 0.03 1.79
 6 -4 0 0.25 0.71
 -6 -4 0 0.57 1.73
 6 -4 0 0.18 0.63
 -6 -4 0 0.29 0.65
 6 -4 1 2.72 1.77
 6 -4 1 1.76 0.72
 6 -4 1 1.63 0.69
 -6 -4 -1 1.32 0.67
 6 4 1 2.43 2.26
 6 -4 2 7.85 0.89
 6 -4 2 7.89 0.86
 -6 -4 -2 8.34 0.89
 6 -4 2 8.24 1.25
 6 -4 3 0.43 1.12
 6 -4 3 0.83 0.7
 6 -4 3 1.21 0.74
 6 4 3 0.77 0.65
 -6 -4 -3 0.31 0.68
 6 -4 4 1.05 0.71
 6 -4 4 0.34 0.76
 -6 -4 -4 1.6 0.57
 6 -4 4 1.08 1.21
 6 4 4 1.02 0.69
 6 -4 5 6.79 0.87
 6 -4 5 5.78 0.91
 -6 -4 -5 7.1 0.72
 6 -4 5 6.58 1.29
 6 4 5 6.76 0.82
 6 -4 6 2.79 0.87
 -6 -4 -6 2.13 0.59
 6 -4 6 2.72 1.25
 6 4 6 1.8 0.75
 6 -4 6 2.33 0.79
 6 -4 7 0.65 0.87
 6 -4 7 0.91 1.24
 -6 -4 -7 0.79 0.51
 6 -4 7 1.59 0.75
 6 4 7 1.8 0.8
 6 -4 8 4.97 1.29
 6 -4 8 4.9 0.83
 6 4 8 5.54 0.9
 6 -4 9 0.99 1.25
 6 4 9 0.4 0.82
 6 4 10 2.12 0.86
 6 -4 10 1.64 0.74
 6 4 11 20.47 22.09
 6 -4 11 4.28 0.8
 6 4 11 4.11 0.93
 6 4 12 0.54 0.84
 6 -4 12 -0.61 0.68
 6 4 13 0.29 2.41
 6 -4 13 0.45 1.22
 6 4 13 0.59 4.79
 6 4 13 0.32 0.77
 6 -4 14 37.16 2.11
 6 4 14 32.58 1.84
 6 -4 15 28.69 1.65
 6 -4 15 28.8 1.82
 6 4 15 26.52 1.57
 6 -4 16 0.94 0.77
 6 4 16 1.74 1.47
 6 -4 16 0.73 1.14
 6 -4 16 0.57 0.67
 6 4 16 0.99 0.69
 6 -4 17 1.8 0.73
 6 4 17 1.84 1.17
 6 -4 17 2.63 0.7
 6 -4 17 2.69 1.12
 6 4 17 1.66 0.67
 6 -4 18 0.74 0.63
 6 4 18 0.31 0.55
 6 -4 18 0.15 0.99
 6 4 18 -0.47 0.92
 6 -4 18 0.61 0.59
 6 -6 -16 0.5 0.44
 -6 -6 16 0.99 0.47
 6 -6 -15 0.35 1.4
 -6 -6 15 -0.4 0.87
 6 6 -15 0.01 1.63
 6 -6 -14 0.39 1.52
 6 -6 -14 0.35 1.04
 6 -6 -14 -0.46 0.74
 6 6 -14 1.26 1.78
 -6 -6 14 1.42 0.96
 6 -6 -13 0.4 1.63
 6 -6 -13 0.46 1.09
 -6 -6 13 -0.56 1.01
 6 -6 -13 -0.23 0.87
 6 6 -13 1.61 1.9
 6 -6 -13 -0.17 0.58
 6 -6 -12 3.38 1.73
 6 -6 -12 1.74 1.19
 6 -6 -12 1.98 0.98
 6 6 -12 1.23 1.96
 6 -6 -12 1.99 0.66
 -6 -6 12 2.89 1.06
 6 -6 -11 0.05 1.79
 6 -6 -11 0.03 1.22
 6 -6 -11 0.39 1.06
 6 6 -11 -0.69 2.02
 6 -6 -11 0.61 0.67
 -6 -6 11 -0.25 1.1
 6 -6 -11 0.51 1.06
 6 -6 -10 16.55 1.62
 6 -6 -10 20.19 1.58
 6 -6 -10 16.89 1.22
 -6 -6 10 23.65 1.51
 6 -6 -10 23.44 1.56
 6 -6 -10 23.69 2.12
 6 -6 -9 3.02 1.29
 6 -6 -9 1.74 1.25
 -6 -6 9 2.33 1.7
 6 -6 -9 1.81 0.7
 6 -6 -9 2.68 1.15
 6 -6 -8 0.02 1.29
 6 -6 -8 -0.26 1.27
 -6 -6 8 -1.02 3.59
 6 -6 -8 0.04 0.71
 6 -6 -8 -0.19 0.74
 6 -6 -8 -0.64 1.12
 6 -6 -7 -0.29 1.91
 -6 -6 7 0.02 0.77
 6 -6 -7 0.73 1.3
 -6 -6 7 -0.53 5.77
 6 -6 -7 -0.12 0.66
 6 -6 -7 0.77 0.75
 6 -6 -6 6.63 1.99
 -6 -6 6 8.57 0.97
 6 -6 -6 4.73 1.37
 -6 -6 6 4.25 7.31
 6 -6 -6 6.07 0.88
 6 -6 -6 4.08 0.75
 6 -6 -6 5.76 1.19
 6 -6 -5 0.78 1.95
 -6 -6 5 1.91 0.85
 6 -6 -5 0.43 1.3
 -6 -6 5 -0.48 7.78
 6 -6 -5 1.29 1.3
 6 -6 -5 0.89 0.77
 6 -6 -5 1.72 0.63
 6 -6 -5 0.59 1.1
 6 -6 -4 0.39 1.93
 6 -6 -4 0.57 1.16
 6 6 -4 353.12 14.77
 6 -6 -4 0.56 1.33
 -6 -6 4 3.05 7.34
 6 -6 -4 0.48 1.26
 6 6 -4 303.86 34.61
 6 -6 -4 0.53 0.74
 6 -6 -3 19.28 2.25
 6 -6 -3 19.81 1.62
 -6 -6 3 24.06 6.04
 6 -6 -3 19.8 1.58
 6 -6 -3 20.35 1.31
 6 -6 -2 8.45 2.08
 6 -6 -2 6.37 1.27
 6 -6 -2 7.36 0.89
 6 6 -2 3.28 9.21
 6 -6 -2 8.21 1.34
 6 -6 -1 139.32 5.61
 6 6 -1 133.28 15.84
 6 -6 -1 141.27 5.61
 6 -6 -1 132.06 5.51
 6 -6 -1 143.86 5.84
 6 -6 0 1.42 2.01
 6 -6 0 0.22 0.73
 6 -6 0 0.47 1.1
 6 -6 0 0.89 1.19
 6 -6 1 47.79 2.39
 6 -6 1 52.39 2.46
 6 -6 1 52.59 2.96
 6 -6 2 4.72 0.98
 -6 -6 -2 6.66 0.86
 -6 -6 -3 0.24 0.71
 6 6 3 54.14 24.5
 6 6 4 1.33 1.64
 -6 -6 -4 2.77 0.77
 6 6 5 -11.88 20.04
 6 6 5 -0.17 1.69
 -6 -6 -5 0.65 0.7
 -6 -6 -6 3.03 0.78
 6 6 6 3.64 1.8
 -6 -6 -7 0.33 0.69
 6 6 7 -7.38 21.99
 6 -6 8 6.29 0.78
 -6 -6 -8 6.83 0.85
 6 6 8 8.53 1.8
 6 -6 8 7.31 1.29
 6 -6 9 1.02 0.64
 -6 -6 -9 0.56 0.66
 6 6 9 2.05 1.7
 6 -6 9 1.91 1.2
 6 -6 10 8.5 0.8
 -6 -6 -10 8.75 0.89
 6 6 10 10.03 1.65
 6 -6 10 9.01 1.28
 6 -6 11 0.04 0.56
 -6 -6 -11 0.58 0.61
 6 6 11 0.59 1.45
 6 -6 11 0.07 1.11
 6 6 11 1.06 4.35
 6 -6 12 -0.15 0.54
 -6 -6 -12 0.71 0.56
 6 6 12 -0.94 1.29
 6 6 12 0.29 1.7
 6 -6 12 0.19 1.05
 6 6 13 -0.19 1.11
 6 -6 13 0.25 0.97
 -6 -6 -13 -0.44 0.53
 7 1 -23 -0.01 0.5
 7 -1 -23 -0.14 0.5
 -7 1 23 0.74 0.92
 -7 -1 23 0.36 0.99
 -7 -1 23 0.27 0.95
 -7 -1 23 0.53 0.5
 -7 1 23 -0.65 0.99
 7 1 -22 0.99 0.61
 7 -1 -22 2.69 0.66
 -7 1 22 2.41 1.07
 -7 -1 22 2.42 0.66
 -7 -1 22 2.31 1.11
 -7 -1 22 0.87 1.12
 -7 1 22 2.54 1.13
 7 -1 -21 2.53 0.7
 -7 -1 21 2.75 0.76
 -7 1 21 2.53 1.14
 7 1 -21 3.5 0.7
 -7 -1 21 2.97 1.22
 -7 1 21 3.18 1.21
 7 -1 -21 3.53 1.63
 7 -1 -20 2.06 0.76
 -7 1 20 3.08 1.21
 -7 -1 20 2.45 1.27
 -7 -1 20 3.25 0.79
 7 1 -20 3.84 0.76
 7 -1 -19 0.85 0.71
 -7 1 19 0.81 1.2
 -7 1 19 0.84 0.72
 -7 -1 19 0.76 0.83
 -7 -1 19 -0.14 1.28
 7 1 -19 0.17 0.75
 7 -1 -18 -0.89 0.78
 7 -1 -18 0.14 0.85
 -7 1 18 0.33 1.26
 -7 -1 18 -0.27 1.23
 -7 -1 18 0.87 1.33
 7 1 -18 0.56 0.76
 7 -1 -17 1.41 0.77
 7 -1 -17 2.11 0.88
 -7 -1 17 2.41 1.08
 -7 -1 17 2.92 1.27
 7 1 -17 5.59 2.3
 -7 -1 17 2.76 1.32
 -7 1 17 2.85 1.32
 7 1 -17 2.56 0.82
 7 -1 -16 -0.02 0.77
 7 -1 -16 0.41 0.88
 -7 1 16 0.4 1.03
 -7 -1 16 -0.04 1.05
 7 1 -16 0.99 2.26
 -7 1 16 0.47 1.27
 -7 -1 16 0.2 1.27
 7 1 -16 0.02 0.71
 7 -1 -15 9.59 1.06
 -7 1 15 10.57 1.22
 -7 -1 15 10.13 1.25
 -7 1 15 10.75 1.42
 7 1 -15 12.43 2.3
 -7 -1 15 10.35 1.46
 7 -1 -15 10.82 1.01
 7 1 -15 8.72 0.97
 7 -1 -14 5.48 0.96
 -7 1 14 6.53 1.15
 -7 -1 14 7.48 1.13
 7 1 -14 6.08 2.3
 -7 -1 14 7.56 1.37
 -7 1 14 6.18 1.34
 7 1 -14 6.53 0.86
 7 -1 -14 6.86 0.87
 7 1 -13 3.02 0.76
 7 -1 -13 1.72 0.87
 -7 1 13 2.34 1.08
 -7 -1 13 1.76 1.05
 7 1 -13 3.03 2.23
 7 -1 -13 2.29 0.75
 -7 -1 13 1.19 1.24
 -7 1 13 1.78 1.2
 7 -1 -13 2.47 0.79
 7 1 -13 2.75 0.72
 7 1 -12 0.27 0.72
 7 -1 -12 0.11 0.78
 -7 -1 12 -0.18 1.03
 7 1 -12 0.39 2.22
 7 -1 -12 -0.47 0.7
 -7 -1 12 1.03 1.23
 -7 1 12 -0.21 1.17
 7 1 -12 0.37 0.64
 7 -1 -12 -0.08 0.62
 7 1 -11 19.34 1.2
 7 -1 -11 20.13 1.28
 -7 -1 11 20.05 1.57
 -7 1 11 20.59 1.53
 7 1 -11 19.29 1.18
 7 -1 -11 18.3 1.15
 7 -1 -11 19.3 1.22
 7 1 -10 1.19 0.68
 7 -1 -10 0.53 0.75
 -7 1 10 0.7 1.13
 7 -1 -10 1.35 0.7
 7 1 -10 1.06 0.57
 -7 -1 10 0.69 1.2
 7 1 -9 4.92 0.76
 7 -1 -9 4.83 0.81
 7 -1 -9 3.83 0.73
 -7 -1 9 5.22 1.22
 -7 1 9 4.27 1.13
 7 1 -8 0.3 0.66
 7 -1 -8 1.49 0.72
 7 -1 -8 0.82 0.64
 7 1 -8 0.49 2.14
 -7 -1 8 0.79 1.14
 -7 1 8 -0.19 1.08
 7 1 -7 -0.45 0.63
 7 -1 -7 0.76 0.67
 7 -1 -7 -0.22 0.61
 7 1 -7 -0.04 0.62
 7 -1 -7 -0.4 0.74
 7 1 -7 -0.48 2.13
 7 -1 -7 0.04 0.63
 -7 -1 7 -0.23 1.13
 -7 1 7 0.37 1.04
 -7 -1 7 -0.16 0.45
 7 -1 -6 0.25 0.62
 7 1 -6 1.16 0.64
 7 -1 -6 1.52 0.7
 -7 -1 6 1.75 1.13
 -7 1 6 1.36 1.04
 -7 1 6 1.02 0.76
 -7 -1 6 1.18 0.46
 -7 1 5 0.24 1.03
 -7 -1 5 0.66 1.1
 7 -1 -5 -0.18 0.61
 7 1 -5 0.86 0.62
 7 -1 -5 0.4 0.7
 -7 -1 5 0.38 0.47
 7 1 -5 2.14 2.12
 -7 -1 5 0.38 0.65
 7 1 -5 0.22 1.88
 7 1 -4 67.79 2.73
 7 -1 -4 62.17 2.77
 7 1 -4 61.81 2.86
 -7 -1 4 64.28 2.85
 7 1 -4 72.03 3.2
 -7 -1 4 62.69 2.72
 -7 -1 4 67.54 2.84
 7 -1 -4 65.63 2.76
 7 -1 -3 14.7 1
 7 1 -3 17.52 0.99
 7 -1 -3 15.32 1.04
 -7 -1 3 17.08 0.95
 7 1 -3 23.38 2.18
 -7 -1 3 16.39 1.28
 7 1 -3 15.51 1.39
 7 -1 -3 16.12 1
 7 1 -3 22.3 2.08
 7 -1 -3 14.7 1.52
 -7 -1 3 15.1 1.03
 7 -1 -2 36.2 1.71
 7 1 -2 38.43 1.68
 7 -1 -2 36.88 1.7
 7 1 -2 33.76 1.96
 7 -1 -2 35.88 2.05
 -7 -1 2 38.81 1.87
 7 -1 -2 35.61 1.9
 7 1 -2 38.6 2.45
 -7 -1 2 35.09 1.71
 7 -1 -1 187.37 7.24
 7 1 -1 193.6 7.21
 7 1 -1 185.4 7.27
 7 -1 -1 177.41 7.3
 -7 -1 1 190 7.25
 -7 -1 1 191.3 7.28
 7 -1 -1 181.67 7.27
 7 1 -1 188.91 7.32
 7 1 -1 188.31 7.35
 7 1 -1 180.83 7.23
 7 -1 0 178.86 6.82
 7 1 0 172.81 6.85
 7 -1 0 176.67 6.85
 7 1 0 177.03 6.8
 7 1 0 179.4 6.9
 -7 -1 0 171.87 6.84
 -7 -1 0 179.71 6.89
 7 -1 0 171.26 6.89
 7 1 0 181.03 6.93
 7 1 0 166.32 6.97
 7 1 0 178.36 6.85
 7 -1 1 156.72 6.17
 7 1 1 159.05 6.11
 7 1 1 157.18 6.24
 -7 -1 -1 157.3 6.18
 7 -1 1 154.48 6.22
 7 1 1 158.37 6.25
 7 -1 1 155.1 6.19
 7 -1 1 158.74 6.19
 7 -1 1 163.7 6.16
 7 1 1 154.36 6.16
 7 -1 2 3.09 0.64
 7 -1 2 3.19 1.1
 -7 -1 -2 3.67 0.63
 7 1 2 2.91 1.38
 7 -1 2 2.94 0.64
 7 -1 2 2.75 1.36
 7 -1 2 3.12 1.19
 7 -1 2 3.85 1.18
 7 1 2 3.52 1.22
 7 1 2 3.07 0.65
 7 -1 3 3.66 0.62
 7 -1 3 3.92 0.71
 7 -1 3 3.51 1.12
 -7 -1 -3 3.46 0.63
 7 1 3 3.55 1.42
 7 -1 3 3.97 1.38
 7 1 3 1.68 2
 7 1 3 2.9 1.14
 7 -1 3 3.52 1.2
 7 -1 3 4.19 0.66
 7 -1 3 3.4 1.2
 7 1 3 3.48 1.22
 7 1 3 3.22 0.66
 7 1 4 19.64 2.14
 7 -1 4 15.45 1.06
 -7 -1 -4 15.88 1.04
 7 1 4 17.14 1.68
 7 -1 4 16.38 1.57
 7 -1 4 16.62 1.48
 7 1 4 17.75 1.51
 7 -1 4 16.6 1.45
 7 -1 4 16.85 1.05
 7 1 4 18.23 1.11
 7 1 4 16.69 1.08
 7 -1 4 16.9 1.01
 7 -1 5 16.2 1.08
 7 -1 5 14.79 1.58
 7 1 5 15.55 2.15
 7 -1 5 15.34 1.44
 7 -1 5 15.38 1.04
 7 1 5 18.28 1.07
 7 -1 5 13.86 1.47
 7 1 5 15.19 1.47
 7 -1 5 15.59 0.99
 7 -1 6 1.71 0.71
 7 -1 6 1.93 1.18
 7 1 6 3.6 2.07
 7 -1 6 1.6 1.37
 7 -1 6 1.65 1.25
 7 -1 6 2.34 1.24
 7 -1 6 1.62 0.66
 7 1 6 1.84 0.69
 7 1 6 1.92 1.27
 7 -1 6 1.88 0.6
 7 -1 7 0.39 0.7
 7 -1 7 1.21 1.15
 7 1 7 0.72 2.07
 7 -1 7 0.1 1.27
 7 1 7 0.02 0.69
 7 1 7 0.15 1.57
 7 -1 7 0.09 1.38
 7 -1 7 0.59 0.64
 7 1 7 0.74 1.33
 7 -1 7 0.34 1.25
 7 1 7 0.19 0.72
 7 -1 7 0.46 0.59
 7 1 8 7.41 1.28
 7 -1 8 6.8 0.86
 7 1 8 7.34 0.87
 7 -1 8 6.8 1.27
 7 -1 8 7.08 1.38
 7 -1 8 7.42 1.47
 7 1 8 8.14 1.68
 7 1 8 8.72 2.1
 7 -1 8 7.43 1.36
 7 1 8 7.84 1.4
 7 1 8 7.18 0.89
 7 -1 8 7.88 0.79
 7 -1 9 5.38 1.35
 7 -1 9 4.86 0.81
 7 -1 9 6.35 1.44
 7 1 9 5.18 0.86
 7 1 9 7.16 1.7
 7 -1 9 4.95 1.27
 7 1 9 5.69 1.28
 7 -1 9 6.31 1.37
 7 1 9 7 1.42
 7 1 9 5.03 0.82
 7 -1 9 5.73 0.72
 7 1 10 1.24 1.37
 7 -1 10 2.18 0.8
 7 1 10 1.17 0.76
 7 1 10 1.28 1.25
 7 1 10 0.85 1.69
 7 -1 10 1.45 1.2
 7 -1 10 0.38 1.3
 7 -1 10 1.65 1.39
 7 1 10 1.01 0.81
 7 -1 10 1.56 0.8
 7 -1 10 1.39 1.37
 7 -1 10 0.62 0.63
 7 -1 11 -0.04 0.81
 7 1 11 0.6 0.76
 7 1 11 -0.98 1.72
 7 -1 11 0.72 1.25
 7 1 11 0.62 1.29
 7 1 11 -0.72 1.39
 7 -1 11 -0.02 0.82
 7 -1 11 -0.04 1.32
 7 1 11 0.41 0.83
 7 -1 11 0.69 0.65
 7 -1 12 0.22 1.38
 7 -1 12 0.86 0.8
 7 1 12 0.17 0.78
 7 -1 12 -0.06 1.29
 7 1 12 0.11 1.45
 7 1 12 -0.16 1.65
 7 1 12 0.76 1.33
 7 -1 12 0.21 0.87
 7 1 12 0.55 0.82
 7 -1 13 -0.21 0.79
 7 -1 13 0.54 1.26
 7 1 13 0.82 1.62
 7 1 13 0.02 1.46
 7 1 13 0.53 1.33
 7 1 13 0.73 0.79
 7 -1 13 0.38 1.34
 7 -1 13 -0.31 0.92
 7 1 13 -0.54 0.82
 7 -1 14 -0.18 0.8
 7 1 14 0.67 1.48
 7 1 14 0.43 1.56
 7 -1 14 0.08 1.34
 7 -1 14 0.41 1.34
 7 -1 14 0.14 0.91
 7 1 14 0.75 0.8
 7 1 14 0.27 1.32
 7 1 14 -0.15 0.83
 7 1 15 0.58 1.43
 7 -1 15 0.59 0.74
 7 1 15 0.23 1.4
 7 1 15 0.31 1.32
 7 -1 15 1.22 1.3
 7 -1 15 -0.45 0.89
 7 1 15 0.64 0.78
 7 -1 15 0.12 1.33
 7 1 15 -0.06 0.84
 7 -1 16 -0.99 0.76
 7 -1 16 0.06 1.29
 7 1 16 -0.22 1.29
 7 -1 16 -0.58 1.33
 7 -1 16 0.02 0.86
 7 1 16 0.08 0.76
 7 1 16 -0.66 1.42
 7 1 16 -0.45 0.75
 7 -1 17 0.84 1.33
 7 -1 17 1.16 0.82
 7 1 17 0.91 0.7
 7 1 17 0.48 1.38
 7 1 17 0.18 0.72
 7 -1 18 2.01 1.27
 7 -1 18 0.49 0.76
 7 -1 18 2.26 1.36
 7 1 18 1.86 1.31
 7 1 18 1.47 0.68
 7 1 19 0.93 1.19
 7 -1 19 0.77 1.16
 7 -1 19 0.43 0.67
 7 -1 19 0.16 1.23
 7 1 19 1.08 1.2
 7 1 19 -0.05 0.55
 7 1 20 1.86 1.08
 7 -1 20 2.46 1.06
 7 -1 20 1.42 0.6
 7 -1 20 1.97 1.16
 7 1 20 2.21 1.05
 7 -1 21 1.89 0.99
 -7 3 21 0.34 0.97
 -7 -3 21 2.15 1.01
 7 3 -21 1.44 0.53
 7 -3 -20 -0.53 0.62
 -7 3 20 -0.49 1.1
 -7 -3 20 0.81 1.09
 -7 -3 20 -0.33 1.11
 7 -3 -20 0.27 1.5
 -7 -3 20 0.25 0.64
 -7 -3 20 0.34 1.08
 7 3 -20 -0.25 0.59
 7 -3 -19 0.33 0.67
 -7 3 19 0.56 1.14
 -7 -3 19 0.76 1.19
 7 3 -19 0.39 2
 -7 -3 19 0.17 1.22
 -7 -3 19 0.33 0.69
 7 3 -19 0.7 0.65
 7 -3 -19 0.24 1.67
 -7 -3 18 15.21 1.52
 -7 3 18 15.4 1.46
 7 3 -18 18.92 2.25
 -7 -3 18 18.04 1.55
 -7 -3 18 14.78 1.14
 7 3 -18 14.14 1.08
 7 -3 -18 14.2 1.1
 7 -3 -18 15.86 1.97
 -7 -3 17 22.65 1.75
 -7 3 17 24.4 1.69
 7 3 -17 29.22 2.45
 -7 -3 17 23.96 1.75
 -7 -3 17 25.15 1.46
 7 3 -17 20.04 1.36
 7 -3 -17 18.35 1.36
 7 -3 -17 25.07 2.16
 7 3 -16 19.11 2.35
 -7 -3 16 17.6 1.62
 -7 -3 16 17.05 1.25
 7 3 -16 14.6 1.19
 7 -3 -16 13.73 1.16
 7 -3 -16 16.29 2.1
 7 3 -15 47.71 2.79
 -7 -3 15 42.37 2.32
 -7 -3 15 41.1 2.09
 7 3 -15 38.85 2
 7 -3 -15 37.34 2.01
 7 -3 -15 41.21 2.65
 7 -3 -14 0.17 0.76
 -7 -3 14 0.02 0.66
 7 3 -14 0.81 2.19
 7 -3 -14 0.62 0.88
 -7 -3 14 0.54 1.34
 7 -3 -14 0.29 1.85
 7 -3 -13 0.31 0.9
 7 -3 -13 -0.26 0.77
 -7 -3 13 -0.49 1.1
 -7 -3 13 0.2 0.71
 7 3 -13 -0.67 2.14
 -7 -3 13 0.57 1.33
 7 -3 -13 0.31 0.89
 7 -3 -13 -0.15 1.9
 7 -3 -12 1.85 0.9
 7 -3 -12 1.3 0.72
 -7 -3 12 1.36 1.1
 -7 -3 12 1.68 0.7
 7 3 -12 3.97 2.18
 7 -3 -12 1.89 0.92
 -7 -3 12 1.88 1.35
 7 -3 -12 1.33 1.88
 7 -3 -11 0.16 0.82
 7 -3 -11 0.07 0.69
 -7 -3 11 0.07 1.09
 -7 -3 11 0.57 0.69
 7 3 -11 4.14 2.18
 7 -3 -11 -0.24 0.86
 -7 -3 11 0.34 1.31
 7 -3 -11 0.24 1.93
 7 -3 -10 3.74 0.89
 -7 -3 10 3.56 1.12
 7 -3 -10 4.36 0.75
 -7 -3 10 3.94 0.78
 7 -3 -10 3.73 0.93
 -7 -3 10 4.28 1.32
 7 -3 -9 1.54 0.78
 -7 -3 9 1.84 1.07
 -7 -3 9 1.2 0.66
 7 -3 -9 1.38 0.87
 -7 -3 9 1.11 1.25
 7 -3 -8 8.34 0.93
 -7 -3 8 8.88 1.16
 -7 -3 8 9 1.35
 7 -3 -8 7.73 0.95
 7 -3 -8 8.18 1.93
 7 -3 -7 -0.51 0.77
 -7 -3 7 -0.01 1.03
 7 -3 -7 0.15 0.79
 7 3 -7 -2.04 5.43
 7 -3 -7 0.11 0.6
 -7 -3 7 0.45 1.22
 7 -3 -7 0.59 1.91
 7 -3 -6 152.39 5.98
 -7 -3 6 153.77 5.99
 7 -3 -6 147.57 5.96
 7 3 -6 151.46 11.47
 -7 -3 6 160.34 6.07
 7 -3 -6 150 6.04
 7 -3 -6 138.9 6.22
 7 -3 -5 1.91 0.72
 7 -3 -5 1.72 0.71
 7 -3 -5 2.59 0.64
 -7 -3 5 3.35 1.2
 7 3 -5 1.98 2.02
 7 -3 -5 2.09 1.87
 7 -3 -4 3.59 0.75
 7 -3 -4 4.05 0.83
 7 -3 -4 3.93 0.78
 7 -3 -4 3.78 0.67
 -7 -3 4 4.16 1.2
 7 3 -4 5.07 2.04
 7 -3 -4 3.71 1.86
 7 -3 -3 -0.33 0.63
 7 -3 -3 -0.07 0.72
 7 -3 -3 0.09 0.7
 7 -3 -3 -0.2 0.6
 -7 -3 3 0.29 1.12
 -7 -3 3 -0.29 0.55
 7 3 -3 1.58 2.03
 7 -3 -3 -0.14 1.79
 7 -3 -2 6.01 0.76
 7 -3 -2 6.71 0.84
 7 -3 -2 5.69 0.75
 -7 -3 2 6.31 1.2
 -7 -3 2 7.02 0.82
 -7 -3 2 6.39 0.73
 7 3 -2 8.68 2.49
 7 -3 -2 9.21 1.79
 7 3 -1 1.05 0.62
 7 -3 -1 0.45 0.61
 7 3 -1 0.65 1.27
 7 -3 -1 0.78 0.71
 7 -3 -1 1.3 0.66
 -7 -3 1 0.59 0.64
 -7 -3 1 0.87 0.56
 7 3 -1 1.48 4.76
 7 -3 -1 1.61 1.7
 7 3 0 10.02 1.5
 7 -3 0 10.12 1.23
 7 -3 0 9.21 0.91
 7 -3 0 10.63 0.93
 -7 -3 0 10.66 0.96
 -7 -3 0 9.98 1.26
 7 3 0 10.09 0.85
 7 -3 1 1.45 0.7
 7 -3 1 1.68 0.71
 7 -3 1 1.69 0.71
 -7 -3 -1 1.79 0.65
 -7 -3 -1 2.11 1.1
 7 3 1 1.89 1.52
 7 -3 1 1.25 1.11
 -7 -3 -1 1.48 0.59
 7 3 1 1.71 0.64
 7 -3 2 0.05 0.71
 7 3 2 0.3 0.67
 7 3 2 54.72 13.04
 -7 -3 -2 0.03 0.57
 7 -3 2 1.03 1.16
 -7 -3 -2 0.2 0.67
 -7 -3 -2 0.38 1.05
 7 3 2 0.09 1.61
 7 3 2 69.5 12.95
 7 -3 2 0.05 0.7
 7 -3 3 13.55 1.39
 7 -3 3 12.52 1.01
 -7 -3 -3 13.51 1.02
 -7 -3 -3 13.22 1.29
 7 3 3 14.69 1.89
 7 -3 3 12.58 0.91
 7 -3 3 11.99 1.03
 -7 -3 -3 13.12 0.92
 7 3 3 12.26 1
 7 -3 4 12.84 1.09
 -7 -3 -4 11.5 1
 -7 -3 -4 12.37 1.3
 7 3 4 13.22 2
 7 -3 4 13.05 1.42
 7 -3 4 11.3 0.93
 -7 -3 -4 14.39 0.95
 7 3 4 13.58 1.05
 -7 -3 -5 39.93 2.02
 7 3 5 39.08 2.7
 -7 -3 -5 38.95 2.12
 -7 -3 -5 42.1 1.94
 7 -3 5 42.42 2.21
 7 3 5 40.57 1.98
 -7 -3 -6 4.2 1.17
 7 3 6 6.78 2.18
 7 -3 6 4.68 1.29
 -7 -3 -6 5.17 0.72
 7 -3 6 3.6 0.76
 7 -3 6 4.87 1.33
 7 3 6 4.56 0.83
 -7 -3 -7 3.9 1.15
 7 3 7 6.85 2.28
 7 -3 7 4.03 1.24
 -7 -3 -7 3.98 0.67
 7 -3 7 4.44 0.82
 7 -3 7 5.09 1.39
 7 3 7 5 0.91
 7 -3 8 -0.29 0.87
 -7 -3 -8 0.53 1.13
 7 3 8 -0.14 2.29
 -7 -3 -8 0.1 0.58
 7 -3 8 -0.36 0.75
 7 -3 8 0.53 1.38
 7 3 8 0.27 0.82
 7 -3 9 0.44 0.95
 -7 -3 -9 0.4 1.12
 7 -3 9 0.16 1.4
 -7 -3 -9 -0.02 0.54
 7 3 9 -0.41 0.85
 7 -3 10 0.07 0.92
 -7 -3 -10 -0.18 1.11
 7 -3 10 -0.8 1.26
 -7 -3 -10 -0.18 0.54
 7 3 10 2.76 3.42
 7 -3 10 -0.02 1.42
 7 3 10 -0.45 0.87
 7 -3 11 0.29 0.92
 -7 -3 -11 0.21 1.11
 7 -3 11 1.37 1.49
 7 3 11 -0.06 2.22
 7 -3 11 -0.18 1.2
 7 3 11 -1.09 2.33
 7 3 11 -0.45 0.87
 7 -3 12 3.49 0.97
 7 3 12 3.38 2.14
 7 -3 12 4.51 1.32
 7 3 12 3.97 2.23
 7 -3 12 2.71 0.89
 7 -3 12 2.48 1.5
 7 3 12 3.98 0.96
 7 -3 13 12.5 1.21
 7 -3 13 12.27 1.47
 7 -3 13 9.88 1.14
 7 -3 13 11.6 1.64
 7 3 13 11.96 1.14
 7 -3 14 98.48 4.44
 7 -3 14 103.34 4.55
 7 -3 14 106.46 4.5
 7 -3 14 97.38 4.45
 7 3 14 107.6 4.43
 7 -3 15 6.43 0.96
 7 3 15 6.97 1.66
 7 -3 15 5.5 1.29
 7 -3 15 6.49 0.98
 7 -3 15 6.99 1.5
 7 3 15 4.84 0.87
 7 -3 16 38.2 2.04
 7 -3 16 34.81 1.86
 7 -3 16 35 2.11
 7 -3 16 30.81 1.85
 7 -3 17 -0.47 0.72
 7 3 17 -0.35 1.14
 7 -3 17 0.34 0.68
 7 -3 17 1.17 1.24
 7 -3 18 1.72 0.65
 -7 -3 -18 0.6 0.56
 7 -3 18 0.84 0.62
 7 -3 18 1.4 1.12
 7 3 18 1.54 0.63
 7 -3 19 0.17 0.49
 7 3 19 -0.07 0.47
 -7 -5 18 3.54 0.96
 7 -5 -18 1.84 0.48
 7 -5 -17 1.84 1.44
 -7 -5 17 2.02 0.92
 -7 -5 17 1.84 1.07
 7 5 -17 0.76 1.71
 7 -5 -17 0.57 0.54
 7 5 -17 1.4 0.49
 -7 5 17 0.59 0.5
 7 -5 -16 1.71 1.55
 -7 -5 16 1.79 0.99
 -7 -5 16 1.61 1.13
 7 5 -16 2.3 1.85
 7 -5 -16 1.5 0.61
 7 5 -16 1.58 0.56
 7 -5 -15 0.24 1.69
 -7 -5 15 0.45 0.98
 7 -5 -15 -0.21 0.83
 7 5 -15 0.22 1.95
 7 -5 -14 0.43 1.76
 7 -5 -14 0.52 0.94
 7 5 -14 1.82 1.99
 7 -5 -14 0.34 0.63
 -7 -5 14 0.81 1.05
 7 -5 -14 1.24 1.05
 7 -5 -13 3.79 1.81
 -7 -5 13 4.22 1.13
 -7 -5 13 3.99 0.82
 7 -5 -13 5.1 1.13
 7 5 -13 4.72 2.08
 7 -5 -13 2.03 0.75
 7 -5 -13 4.52 1.13
 -7 -5 12 -0.72 0.73
 7 -5 -12 -0.3 1.17
 7 5 -12 0.26 2.09
 7 -5 -12 -0.19 0.68
 7 -5 -12 -0.32 1.11
 7 -5 -12 0.63 1.87
 -7 -5 11 2.12 0.83
 7 -5 -11 2.35 1.27
 7 -5 -11 1.23 0.71
 7 -5 -11 2.09 1.15
 -7 -5 10 3.04 0.87
 7 -5 -10 3.02 1.39
 7 5 -10 4.82 2.11
 7 -5 -10 2.45 0.76
 7 -5 -10 4.24 0.95
 7 -5 -10 3.14 1.16
 -7 -5 9 5.2 0.9
 7 -5 -9 3.88 1.39
 7 -5 -9 4.23 0.94
 7 -5 -9 3.62 0.81
 7 -5 -9 4.7 1.2
 -7 -5 8 -0.15 0.8
 7 -5 -8 0.73 0.86
 7 -5 -8 0.28 0.72
 7 -5 -8 -0.33 1.11
 7 -5 -8 -0.46 1.99
 7 -5 -7 0.77 1.96
 -7 -5 7 0.22 0.79
 7 -5 -7 1.02 0.87
 7 -5 -7 0.69 0.67
 7 -5 -7 1.37 1.1
 7 -5 -6 1.37 1.96
 7 -5 -6 1.73 0.9
 7 -5 -5 1.22 2
 7 -5 -5 0.04 0.85
 7 -5 -5 0.12 0.6
 7 -5 -5 1.03 1.12
 7 -5 -4 3.89 2.02
 7 -5 -4 5.26 0.93
 7 -5 -4 3.96 0.72
 7 -5 -3 0.51 2.02
 7 -5 -3 0.75 0.81
 7 5 -3 0.89 2.29
 7 -5 -2 2.39 2.02
 7 -5 -2 1.02 0.85
 7 -5 -2 0.99 1.24
 7 5 -2 -2.06 4.46
 7 -5 -1 32.88 1.97
 7 -5 -1 32.38 1.79
 7 -5 -1 34.28 2.5
 7 -5 0 1.85 1.96
 7 -5 0 2 0.85
 7 -5 0 2.54 0.69
 7 -5 0 2.17 1.14
 -7 -5 0 2.12 0.79
 7 -5 1 7.24 0.97
 7 -5 1 4.97 0.82
 7 -5 1 6.37 1.12
 -7 -5 -1 7.56 0.95
 7 -5 1 7.09 1.27
 7 -5 2 1.64 0.79
 7 -5 2 2.18 0.74
 7 -5 2 1.85 0.97
 -7 -5 -2 2.77 0.8
 7 5 2 1.35 1.67
 7 -5 2 2.13 1.17
 7 -5 3 1.92 0.82
 7 -5 3 2.47 0.76
 -7 -5 -3 2.07 0.8
 7 5 3 2.38 1.76
 7 -5 3 3.34 1.27
 7 -5 4 -0.25 0.78
 7 -5 4 -0.16 0.73
 7 5 4 170.39 19.01
 -7 -5 -4 -0.1 0.73
 7 5 4 1.18 1.85
 7 -5 4 -0.12 1.28
 7 5 4 166.02 19.23
 7 -5 5 2.02 1.28
 7 -5 5 1.71 0.79
 7 -5 5 2.3 0.8
 -7 -5 -5 2.26 0.8
 7 5 5 2.02 1.92
 7 -5 6 -0.18 0.73
 7 -5 6 -0.35 0.83
 -7 -5 -6 -0.15 0.74
 7 5 6 -0.46 2.02
 7 -5 6 0.8 1.31
 7 -5 7 0.34 0.69
 7 -5 7 1.09 0.81
 7 5 7 0.12 2.01
 7 -5 7 0.67 1.26
 7 5 7 1.68 0.72
 7 -5 8 0.42 0.85
 7 5 8 1.19 2.05
 7 -5 8 2.85 1.26
 7 5 8 1.17 0.68
 7 -5 9 7.02 0.99
 7 5 9 9.97 2.09
 7 -5 9 8.55 1.4
 7 5 9 5.67 0.83
 7 5 10 6.81 0.84
 7 -5 10 6 0.94
 7 5 10 11.53 1.99
 7 -5 10 7.45 1.34
 7 5 10 5.31 4.61
 7 -5 11 7.18 0.93
 -7 -5 -11 6.13 0.85
 7 5 11 10.03 1.85
 7 5 11 7.63 2.17
 7 -5 11 7.86 1.34
 7 5 11 6.13 0.81
 7 -5 12 2.75 1.21
 7 -5 12 3.12 0.76
 -7 -5 -12 1.92 0.72
 7 5 12 3.59 1.66
 7 5 12 2.52 1.89
 7 5 12 2.99 0.69
 7 -5 13 -0.16 0.69
 -7 -5 -13 0.56 0.62
 7 5 13 0.7 1.72
 7 5 13 0.11 0.6
 7 -5 14 1.33 0.65
 -7 -5 -14 -0.06 0.57
 7 5 14 0.62 0.55
 7 -5 15 0.86 0.54
 -7 -5 -15 -0.59 0.52
 7 5 15 1.41 1.03
 7 -5 15 0.77 1
 7 5 15 0.39 0.49
 7 -7 -9 -0.01 1.39
 -7 -7 9 -0.28 0.48
 7 -7 -9 -0.29 0.72
 7 -7 -8 0.77 1.46
 -7 -7 8 0.2 0.51
 -7 -7 8 -0.5 0.89
 7 -7 -7 1.12 1.52
 -7 -7 7 -0.33 0.52
 7 -7 -7 0.39 0.79
 7 7 -7 0.28 1.71
 -7 -7 7 -0.56 0.91
 7 -7 -6 1.7 1.55
 -7 -7 6 0.53 0.56
 7 -7 -6 -0.39 0.83
 7 7 -6 -2.49 1.79
 -7 -7 6 0.1 0.9
 7 -7 -5 1.34 1.61
 -7 -7 5 0.78 0.58
 7 -7 -5 0.06 0.83
 7 7 -5 2.87 2.27
 -7 -7 5 0.37 0.94
 7 -7 -4 3.06 1.62
 -7 -7 4 3.42 0.63
 7 -7 -4 2.55 0.83
 -7 -7 4 2.1 0.97
 7 -7 -3 -0.07 1.86
 -7 -7 3 -0.19 0.61
 7 -7 -3 -0.54 0.81
 7 -7 -2 4.86 5.14
 -7 -7 2 4.55 0.7
 7 7 -2 11.62 7.88
 7 -7 -2 3.14 0.81
 -7 -7 1 4.33 0.66
 7 7 -1 5.89 8.8
 7 -7 -1 3.95 0.76
 7 7 0 3.5 1.7
 7 7 0 22.43 8.7
 7 7 1 0.84 1.67
 7 7 2 0.76 1.67
 7 7 3 -0.33 1.66
 7 7 4 -1.43 1.66
 7 7 5 -0.95 1.58
 7 7 6 -0.39 1.52
 -8 0 23 0.28 0.91
 8 0 -22 4.98 0.6
 -8 0 22 6.73 1.03
 -8 0 22 5.17 0.65
 -8 0 22 7.04 1.12
 8 0 -21 0.52 0.59
 -8 0 21 -0.32 1.05
 -8 0 21 -0.55 1.08
 -8 0 21 0.36 0.63
 -8 0 20 10.06 1.28
 -8 0 20 10.92 0.96
 -8 0 20 10.7 1.34
 8 0 -20 9.3 0.87
 8 0 -19 1.03 0.69
 8 0 -19 0.29 0.7
 -8 0 19 -0.25 1.19
 -8 0 19 -0.77 1.24
 8 0 -18 -0.31 0.69
 8 0 -18 0.79 0.77
 -8 0 18 -0.49 1.23
 -8 0 18 -0.17 1.26
 8 0 -17 -1.02 0.83
 -8 0 17 0.18 1.06
 -8 0 17 0.2 1.27
 8 0 -17 0.09 0.69
 8 0 -16 9.76 1.04
 -8 0 16 9.5 1.25
 -8 0 16 10.91 1.46
 8 0 -16 9.66 0.94
 8 0 -15 -0.1 0.84
 -8 0 15 0.42 1.07
 -8 0 15 -0.38 1.28
 8 0 -15 0.05 0.68
 8 0 -14 -0.31 0.82
 -8 0 14 -0.54 1.07
 -8 0 14 -0.46 1.3
 8 0 -14 0.26 0.65
 8 0 -13 0.38 0.78
 -8 0 13 0.55 1.05
 8 0 -13 3.61 2.23
 -8 0 13 -0.23 1.27
 8 0 -12 4.66 0.89
 -8 0 12 5.66 1.34
 8 0 -11 0.22 0.77
 -8 0 11 -0.61 1.21
 8 0 -10 0.1 0.76
 -8 0 10 0.55 1.21
 8 0 -9 0.03 0.76
 8 0 -9 -1.91 2.25
 -8 0 9 0.02 1.17
 8 0 -8 5.45 0.85
 8 0 -8 6.55 2.25
 -8 0 8 6.3 1.22
 8 0 -7 0.39 0.7
 8 0 -7 0.19 0.73
 -8 0 7 0.59 1.14
 8 0 -6 11.97 0.98
 8 0 -6 12.39 0.99
 -8 0 6 12.73 1.31
 8 0 -6 10.98 1.43
 8 0 -5 0.19 0.68
 8 0 -5 -0.02 0.62
 8 0 -5 1.47 2.14
 -8 0 5 -0.46 0.99
 -8 0 5 -0.1 1.05
 8 0 -5 -0.08 1.31
 8 0 -4 1.65 0.72
 8 0 -4 0.65 0.65
 8 0 -4 -1.1 2.15
 -8 0 4 0.44 0.97
 8 0 -4 0.84 1.37
 8 0 -3 0.01 0.6
 8 0 -3 3.62 2.1
 -8 0 3 0.18 1.01
 8 0 -3 0.31 1.4
 8 0 -2 550.25 20.31
 8 0 -2 518.03 20.31
 -8 0 2 538.86 20.31
 8 0 -2 538.48 20.26
 8 0 -1 1.29 0.65
 -8 0 1 2.5 1.05
 8 0 -1 2.63 1.51
 8 0 -1 2.97 1.26
 8 0 0 1232.98 45.81
 8 0 0 1206.81 45.8
 8 0 1 -1.48 0.72
 8 0 1 -0.6 0.66
 8 0 1 1.43 1.56
 8 0 1 1.91 1.25
 8 0 2 4.26 0.71
 8 0 2 4.28 0.67
 8 0 2 2.93 1.53
 8 0 2 4.07 1.22
 8 0 2 6.27 2.05
 8 0 3 0.4 0.63
 8 0 3 -0.04 0.6
 8 0 3 -0.36 1.99
 8 0 3 0.5 1.18
 8 0 3 -0.17 0.64
 8 0 4 17.07 1.08
 8 0 4 16.15 2.13
 8 0 4 17.01 1.49
 8 0 4 17.35 1.12
 8 0 5 0.14 0.61
 8 0 5 -0.55 1.55
 8 0 5 0.61 2
 8 0 5 0.58 1.26
 8 0 5 -0.19 1.31
 8 0 5 0.12 0.65
 8 0 6 10.11 0.89
 8 0 6 11.35 1.68
 8 0 6 8.8 2.1
 8 0 6 10.04 1.39
 8 0 6 10.95 1.03
 8 0 6 11.08 1.46
 8 0 6 9.29 0.93
 8 0 7 -0.13 0.64
 8 0 7 0.46 1.64
 8 0 7 0.79 1.27
 8 0 7 0.34 0.76
 8 0 7 -0.17 1.35
 8 0 7 0.18 0.68
 8 0 8 13.31 1.03
 8 0 8 13.44 1.8
 8 0 8 13.11 1.53
 8 0 8 13.42 1.12
 8 0 8 14.29 1.6
 8 0 8 12.66 1.06
 8 0 9 0.61 0.68
 8 0 9 -0.05 1.63
 8 0 9 -0.19 1.33
 8 0 9 -0.63 0.84
 8 0 9 -0.34 1.42
 8 0 9 0.25 0.72
 8 0 10 1.1 1.67
 8 0 10 0.69 1.34
 8 0 10 -0.36 0.87
 8 0 10 -0.04 1.43
 8 0 10 0.22 0.73
 8 0 11 0.72 1.63
 8 0 11 1.45 1.32
 8 0 11 0.23 0.88
 8 0 11 0.72 1.42
 8 0 11 0.78 0.76
 8 0 12 -0.11 1.57
 8 0 12 -0.32 1.35
 8 0 12 0.71 0.87
 8 0 12 0.62 1.42
 8 0 12 0.24 0.75
 8 0 13 0.2 1.45
 8 0 13 -0.38 1.34
 8 0 13 0.52 0.86
 8 0 13 -0.67 1.43
 8 0 13 0.06 0.72
 8 0 14 2.35 1.3
 8 0 14 2.1 0.89
 8 0 14 1.27 1.42
 8 0 14 1.63 0.73
 8 0 15 0.36 1.28
 8 0 15 0.04 0.8
 8 0 15 -0.07 1.39
 8 0 15 0.34 0.66
 8 0 16 5.53 1.34
 8 0 16 4.17 0.88
 8 0 16 5.66 1.48
 8 0 17 -0.03 1.25
 8 0 17 -0.42 0.69
 8 0 17 0.3 1.33
 8 0 18 -0.06 0.66
 8 0 18 1.48 1.24
 8 0 19 -0.27 1.12
 8 0 20 9.34 1.04
 8 0 20 8.38 1.08
 -8 2 22 0.3 0.88
 -8 -2 22 0.26 0.92
 -8 -2 22 0.5 0.51
 -8 2 21 0.15 0.99
 -8 -2 21 1.81 1.04
 -8 -2 21 1.05 0.61
 -8 -2 21 0.21 1.07
 8 -2 -21 0.9 1.42
 8 2 -21 0.34 0.49
 8 -2 -20 1.28 0.58
 -8 -2 20 0.78 1.15
 -8 -2 20 1.21 0.66
 -8 2 20 2.05 1.11
 8 -2 -20 3.12 1.59
 8 2 -20 1.1 0.59
 8 -2 -19 0.51 0.63
 -8 -2 19 -0.09 1.22
 -8 -2 19 0.29 0.73
 8 -2 -19 -0.04 1.71
 8 2 -19 0.13 0.62
 8 -2 -18 1.21 0.71
 8 -2 -18 0.72 0.79
 8 2 -18 3.06 2.12
 -8 -2 18 1.72 0.79
 -8 -2 18 2.53 1.3
 8 2 -18 0.6 0.64
 8 -2 -18 0.46 1.8
 8 -2 -17 12.2 1.13
 8 2 -17 13.92 2.3
 -8 -2 17 14.51 1.51
 8 2 -17 11.22 0.99
 8 -2 -17 12.09 1.02
 8 -2 -17 16.26 2.04
 8 -2 -16 9.29 1.1
 -8 -2 16 11.26 1.23
 -8 -2 16 11.14 1.46
 8 2 -16 9.55 0.94
 8 -2 -16 10.57 0.93
 8 -2 -15 50.16 2.41
 -8 -2 15 48.66 2.42
 8 2 -15 56.47 3.03
 -8 -2 15 51.11 2.59
 8 2 -15 48.16 2.25
 8 -2 -15 46.81 2.27
 8 -2 -14 21.41 1.46
 -8 -2 14 20.66 1.51
 8 2 -14 26.32 2.39
 -8 -2 14 21.09 1.69
 8 2 -14 19.87 1.25
 8 -2 -14 20.81 1.28
 8 -2 -14 20.56 1.36
 8 -2 -13 -0.42 0.86
 8 -2 -13 0.2 0.79
 8 2 -13 -0.02 0.62
 8 -2 -12 2.98 0.94
 8 2 -12 3.05 2.19
 8 -2 -12 3.39 0.85
 -8 -2 11 4.63 1.1
 -8 -2 11 4.69 0.7
 8 -2 -11 4.05 0.89
 -8 -2 10 1.81 1.06
 -8 -2 10 2.02 0.65
 8 -2 -10 1.57 0.78
 -8 -2 9 3.15 0.67
 8 -2 -9 3.23 0.77
 8 2 -9 4.19 2.26
 8 2 -8 7.08 0.83
 8 -2 -8 6.49 0.87
 -8 -2 8 5.85 0.74
 8 -2 -8 7.06 0.91
 8 2 -8 7.67 2.26
 8 2 -7 11.82 0.95
 8 -2 -7 10.14 1.01
 8 -2 -7 11.78 0.99
 8 2 -7 15.07 2.31
 -8 -2 7 12.37 1.38
 8 2 -7 12.28 2.01
 8 -2 -7 11.59 1.02
 8 -2 -6 1.13 0.76
 8 -2 -6 1.04 0.72
 8 -2 -6 1.97 0.71
 8 2 -6 5.46 2.23
 -8 -2 6 2.09 1.18
 8 2 -6 1.6 1.97
 8 -2 -5 10.71 0.98
 8 -2 -5 10.53 0.95
 8 -2 -5 11.47 1.01
 -8 -2 5 11.67 0.83
 -8 -2 5 10.34 1.33
 8 2 -5 14.01 2.05
 8 -2 -5 11.32 0.99
 8 -2 -4 0.11 0.7
 8 -2 -4 0.27 0.7
 8 -2 -4 -0.03 0.76
 8 -2 -4 0.32 0.65
 8 2 -4 1.16 2.18
 -8 -2 4 0.19 1.16
 -8 -2 4 -0.16 0.57
 8 2 -4 -0.86 2.01
 8 -2 -3 0.43 0.71
 8 -2 -3 0.15 0.71
 8 -2 -3 -0.11 0.73
 8 -2 -3 -0.03 0.66
 8 2 -3 -0.73 2.16
 -8 -2 3 0.41 1.06
 8 2 -3 0.75 2
 8 2 -3 -0.08 1.27
 -8 -2 3 -0.16 0.62
 8 -2 -2 3.41 0.75
 8 2 -2 5.44 2.02
 8 -2 -2 2.93 0.77
 8 -2 -2 2.73 0.77
 8 -2 -2 2.98 0.72
 8 2 -2 4.83 2.15
 -8 -2 2 3.08 1.09
 8 2 -2 3.29 1.34
 -8 -2 2 3.54 0.58
 8 -2 -2 3.23 1.71
 8 2 -1 2.8 0.7
 8 -2 -1 4 0.79
 8 -2 -1 3.06 0.72
 8 -2 -1 3.97 0.8
 -8 -2 1 3.95 0.7
 8 2 -1 4.9 1.41
 -8 -2 1 3.49 0.67
 8 2 -1 5.31 2.07
 8 2 0 0.98 0.67
 -8 -2 0 1.2 0.62
 8 2 0 1.43 1.44
 -8 -2 0 0.77 0.59
 8 2 0 0.99 2.05
 8 -2 0 1.19 1.16
 8 -2 0 1.02 0.71
 8 -2 1 3.15 0.79
 -8 -2 -1 3.42 0.68
 -8 -2 -1 2.99 0.66
 8 2 1 2.22 1.53
 8 -2 1 2.61 1.18
 8 2 1 2.78 2.06
 8 -2 1 3.56 1.54
 8 -2 1 2.75 0.64
 8 -2 1 2.5 1.19
 8 2 1 3.31 1.26
 8 2 1 2.32 0.74
 8 -2 2 0.22 0.73
 -8 -2 -2 0.55 1.04
 -8 -2 -2 -0.1 0.61
 8 -2 2 -0.2 1.2
 8 2 2 1.02 1.61
 -8 -2 -2 0.54 0.61
 8 -2 2 0.83 1.55
 8 -2 2 1.58 0.65
 8 -2 2 0.35 1.21
 8 2 2 0.89 1.25
 8 2 2 0.49 0.67
 8 -2 3 2.22 0.72
 -8 -2 -3 2.57 1.09
 -8 -2 -3 2.34 0.7
 8 2 3 3.78 1.69
 8 -2 3 1.78 1.21
 8 -2 3 1.59 1.57
 8 -2 3 2.18 0.67
 8 -2 3 2.52 1.25
 8 2 3 3.14 1.3
 8 2 3 1.81 0.71
 8 -2 4 -0.29 0.79
 8 -2 4 0.16 1.19
 -8 -2 -4 -0.12 0.64
 -8 -2 -4 0.21 1.11
 8 2 4 0.32 1.71
 8 2 4 -1.57 2.11
 8 -2 4 1.09 1.53
 8 -2 4 1.13 0.7
 8 -2 4 0.13 1.26
 8 2 4 0.54 1.28
 8 2 4 0.72 0.7
 8 -2 5 26.37 1.6
 8 -2 5 28.76 1.82
 -8 -2 -5 30.91 1.58
 8 2 5 30.36 2.23
 8 -2 5 23.28 2.01
 8 -2 5 29.29 1.92
 8 2 5 33.28 1.9
 8 2 5 26.57 2.46
 8 -2 5 28.64 1.87
 8 -2 5 26.67 1.53
 8 2 5 29.08 1.6
 8 -2 6 0.56 0.82
 -8 -2 -6 -0.23 0.67
 8 -2 6 -0.62 1.5
 8 2 6 1.05 1.87
 8 -2 6 0.44 1.2
 8 2 6 -0.54 2.17
 8 -2 6 -0.5 0.71
 8 -2 6 -0.02 1.37
 8 2 6 0.02 1.3
 8 2 6 -0.54 0.74
 8 -2 7 -0.31 1.49
 8 -2 7 0.81 0.84
 -8 -2 -7 -0.61 0.7
 8 2 7 1.97 2.2
 8 -2 7 0.76 0.78
 8 -2 7 0.41 1.39
 8 2 7 -0.08 1.32
 8 2 7 0.62 0.78
 8 -2 8 2.76 0.9
 8 2 8 4.69 2.26
 8 -2 8 2.13 1.44
 8 -2 8 2.3 0.83
 8 -2 8 2.87 1.43
 8 2 8 2.89 1.39
 8 2 8 3.15 0.89
 8 -2 9 2.3 0.92
 8 2 9 3.96 2
 8 -2 9 3.01 1.28
 8 2 9 2.68 2.23
 8 -2 9 1.56 1.41
 8 -2 9 2.65 0.9
 8 -2 9 2.09 1.48
 8 2 9 3.62 1.4
 8 2 9 3.37 0.88
 8 -2 10 0.41 0.88
 8 2 10 -1.3 1.98
 8 2 10 2.26 2.23
 8 -2 10 0.48 1.25
 8 -2 10 0.24 1.33
 8 -2 10 0.53 0.86
 8 -2 10 0.19 1.46
 8 -2 11 1.06 0.89
 8 -2 11 -0.88 1.36
 8 2 11 1.04 2.21
 8 2 11 2.26 1.92
 8 -2 11 1.29 1.24
 8 -2 11 0.62 0.87
 8 -2 11 0.54 1.5
 8 2 11 0.96 1.4
 8 -2 12 5.37 1.01
 8 2 12 5.89 1.9
 8 -2 12 4.97 1.31
 8 -2 12 7.43 1.44
 8 -2 12 6.48 1.05
 8 -2 12 6.96 1.57
 8 2 12 6.7 1.51
 8 2 12 4.73 0.96
 8 -2 13 6.1 0.99
 8 2 13 7.33 1.83
 8 -2 13 6.44 1.34
 -8 -2 -13 3.78 0.66
 8 -2 13 6.46 1.43
 8 -2 13 5.51 1.57
 8 2 13 5.94 1.44
 8 2 13 6.26 0.98
 8 -2 14 2.58 0.89
 8 2 14 1.92 1.65
 8 -2 14 2.35 1.36
 8 -2 14 1.42 1.46
 8 2 14 1.92 1.39
 8 2 14 2.75 0.89
 8 -2 15 18.02 1.32
 8 -2 15 21.63 1.81
 8 2 15 21.71 1.7
 8 -2 15 22.25 1.7
 8 2 15 20.56 1.36
 8 -2 16 8.22 0.9
 -8 -2 -16 5.89 1.09
 8 2 16 12.12 1.38
 8 2 16 8.53 1.34
 8 -2 16 10.23 1.38
 8 -2 16 8.6 0.99
 8 -2 16 9.55 1.52
 8 2 16 10.24 1.34
 8 2 16 9.41 0.94
 8 -2 17 1.42 0.67
 8 2 17 4.13 1.19
 8 -2 17 3 1.18
 8 -2 17 2.49 0.74
 8 -2 17 2.63 1.28
 8 2 17 2.75 0.68
 8 2 18 2.06 1.08
 8 -2 18 1.21 0.65
 8 -2 18 1.13 1.16
 8 2 18 1.64 0.58
 8 2 19 -0.54 0.93
 8 -2 19 0.37 0.55
 8 -2 19 -0.49 1
 8 -4 -19 -0.8 1.32
 -8 -4 19 0.26 0.88
 -8 4 19 0.26 0.88
 8 -4 -19 -0.35 0.45
 -8 4 18 0.19 0.99
 -8 -4 18 -0.13 1.05
 8 4 -18 -2.03 1.81
 8 -4 -18 0.1 0.52
 -8 -4 18 -0.32 1.01
 -8 -4 18 0.41 0.56
 8 -4 -18 0.4 1.48
 -8 4 17 2.72 1.09
 -8 -4 17 3.59 1.16
 8 4 -17 3.34 1.95
 8 -4 -17 1.76 0.6
 -8 -4 17 2.89 1.12
 -8 -4 17 3.23 0.66
 8 4 -17 2.82 0.58
 8 -4 -17 3.78 1.64
 -8 4 16 20.32 1.49
 8 4 -16 20.33 2.21
 -8 -4 16 20.92 1.55
 -8 -4 16 18.61 1.17
 8 4 -16 17.56 1.1
 8 -4 -16 20.75 1.98
 -8 4 15 4.13 1.22
 8 -4 -15 4.7 1.05
 8 4 -15 4.16 2.11
 -8 -4 15 4.8 1.29
 -8 -4 15 5.08 0.79
 8 4 -15 4.09 0.71
 8 -4 -15 4.6 1.82
 8 -4 -14 0.56 0.82
 8 4 -14 4.89 2.12
 -8 -4 14 1.6 1.31
 -8 -4 14 1.64 0.74
 8 -4 -14 1.82 1.11
 8 4 -14 1.66 0.67
 8 -4 -14 2.41 1.85
 8 -4 -13 1.65 0.82
 -8 -4 13 1.44 0.77
 8 4 -13 2.42 2.09
 8 -4 -13 1.56 0.86
 -8 -4 13 1.08 1.31
 -8 -4 13 0.84 0.74
 8 -4 -13 0.36 1.16
 8 -4 -13 -0.31 1.87
 8 -4 -12 0.28 0.8
 -8 -4 12 -0.52 0.72
 -8 -4 12 0.34 1.32
 8 4 -12 1.26 2.08
 8 -4 -12 0.71 0.87
 -8 -4 12 -0.64 0.75
 8 -4 -12 1.02 1.17
 8 -4 -11 -0.06 0.79
 -8 -4 11 0.49 0.74
 8 -4 -11 -0.02 0.87
 -8 -4 11 0.59 1.33
 -8 -4 11 0.7 0.72
 8 -4 -10 0.69 0.81
 -8 -4 10 0.14 0.71
 8 -4 -10 -0.18 0.88
 -8 -4 10 0.34 1.31
 -8 -4 10 0.18 0.7
 8 -4 -10 -1.3 1.94
 8 -4 -9 0.31 0.79
 -8 -4 9 -0.04 1.08
 -8 -4 9 0.12 0.76
 8 -4 -9 0.58 0.89
 -8 -4 9 0.74 1.32
 8 -4 -9 -0.25 1.99
 8 -4 -8 1.21 0.79
 -8 -4 8 1.04 1.07
 -8 -4 8 1.44 0.82
 8 -4 -8 0.76 0.91
 8 4 -8 2.45 2.26
 -8 -4 8 1.62 1.34
 8 -4 -8 1.12 2
 8 -4 -7 0.19 0.76
 -8 -4 7 0.33 1.04
 8 -4 -7 0.02 0.86
 8 4 -7 0.72 2.49
 -8 -4 7 1.08 1.31
 8 -4 -7 0.18 2.02
 8 -4 -6 6.18 0.86
 8 4 -6 7.15 4.21
 8 -4 -6 7.05 0.81
 -8 -4 6 8.35 1.4
 8 -4 -6 8.17 2.06
 8 -4 -5 7.93 0.85
 8 -4 -5 6.5 0.82
 8 -4 -5 4.81 0.75
 -8 -4 5 7.44 1.34
 8 4 -5 7.59 2.15
 8 -4 -5 8.62 2.06
 8 -4 -4 5.42 0.78
 -8 -4 4 7.2 1.3
 8 4 -4 7.36 2.15
 8 -4 -4 4.39 2.01
 8 -4 -3 4.99 0.79
 -8 -4 3 4.92 1.28
 8 4 -3 4.02 2.19
 8 -4 -3 5.41 1.98
 8 -4 -2 3.36 1.94
 8 -4 -2 1.99 0.82
 8 -4 -2 1.49 0.7
 -8 -4 2 2.67 1.23
 8 4 -2 0.81 2.18
 8 -4 -1 1.56 0.9
 8 -4 -1 1.36 0.76
 8 -4 -1 0.57 0.71
 -8 -4 1 2.17 1.22
 8 4 -1 2.73 2.19
 8 -4 0 0.32 0.83
 8 -4 0 -0.18 0.73
 8 -4 0 -0.45 0.74
 8 4 0 5.93 17.68
 -8 -4 0 -0.09 1.2
 8 4 0 0.95 1.49
 8 4 0 -0.39 2.29
 8 -4 1 3.84 0.92
 8 -4 1 4.46 0.8
 8 -4 1 2.63 0.85
 -8 -4 -1 3.78 0.87
 8 4 1 3.07 1.6
 8 -4 1 2.92 1.25
 8 4 1 4.04 2.86
 8 -4 2 -0.17 0.87
 8 -4 2 -0.23 0.79
 -8 -4 -2 0.5 0.73
 8 4 2 -0.39 1.72
 8 -4 2 0.03 1.25
 8 4 2 0.09 0.68
 8 -4 3 0.5 0.87
 8 -4 3 0.82 0.85
 -8 -4 -3 0.58 0.72
 8 4 3 0.91 1.8
 8 -4 3 0.82 1.29
 8 4 3 1.04 0.73
 8 -4 4 9.23 1.06
 8 -4 4 8.06 1.04
 -8 -4 -4 10.04 1.05
 8 4 4 12.76 2
 8 -4 4 8.66 1.43
 -8 -4 -4 9.04 0.86
 8 4 4 5.17 4.72
 8 4 4 9.39 0.96
 8 -4 5 8.51 1.05
 8 -4 5 8.86 1.07
 -8 -4 -5 10.8 0.9
 -8 -4 -5 9.69 1.05
 8 4 5 11.31 2.08
 8 -4 5 11.4 1.47
 8 4 5 7.77 1
 8 -4 6 0.68 0.81
 8 -4 6 1.02 0.89
 -8 -4 -6 -0.05 0.81
 8 4 6 1.16 2.07
 8 -4 6 0.41 1.32
 -8 -4 -6 1.13 0.62
 8 4 6 0.06 0.77
 8 -4 7 0.88 0.82
 8 -4 7 0.23 0.87
 -8 -4 -7 0.69 0.81
 8 4 7 1.14 2.11
 8 -4 7 1.12 1.31
 -8 -4 -7 1.26 0.58
 8 4 7 -1.26 2.77
 8 4 7 0.83 0.78
 8 -4 8 1.54 0.81
 8 -4 8 1.83 0.92
 -8 -4 -8 1.27 0.77
 8 4 8 2.23 2.14
 8 -4 8 1.85 1.32
 8 4 8 -0.25 2.31
 8 -4 8 0.66 0.72
 8 4 8 1.36 0.81
 8 -4 9 0.51 0.75
 8 -4 9 0.49 0.89
 -8 -4 -9 0.35 0.79
 8 4 9 0.25 2.07
 8 -4 9 0.76 1.35
 8 4 9 1.86 2.2
 8 -4 9 0.02 0.71
 8 4 9 0.4 0.84
 8 -4 10 0.87 0.75
 -8 -4 -10 0.7 0.77
 8 4 10 0.56 2.03
 8 -4 10 0.71 1.28
 8 4 10 1.03 2.16
 8 -4 10 0.13 0.72
 8 4 10 1.25 0.83
 8 -4 11 0.79 0.72
 -8 -4 -11 -0.07 0.76
 8 4 11 1.94 1.86
 8 4 11 -1.85 2.11
 8 -4 11 0.09 0.71
 8 4 11 0.1 0.76
 8 -4 12 1.24 0.71
 -8 -4 -12 0.32 0.7
 8 4 12 1.6 1.98
 8 -4 12 0.51 0.73
 8 4 12 0.47 0.77
 8 -4 13 -0.22 0.61
 8 -4 13 0.02 0.77
 8 -4 13 1.03 1.22
 -8 -4 -13 0.08 0.65
 8 4 13 -0.13 1.52
 8 -4 13 0.08 0.67
 8 4 13 0.02 0.69
 8 -4 14 2 0.74
 -8 -4 -14 1.41 0.65
 8 4 14 1.35 1.36
 8 -4 14 2.04 1.18
 8 -4 14 1.72 0.67
 8 4 14 1.59 0.69
 8 -4 15 0.55 0.66
 -8 -4 -15 0.5 0.57
 8 4 15 0.91 1.18
 8 -4 15 0.52 0.58
 8 4 15 0.01 0.58
 8 -4 16 0.05 0.56
 -8 -4 -16 0.34 0.5
 8 4 16 0.77 0.97
 8 -4 16 0.94 0.52
 8 4 16 0.41 0.53
 8 -6 -13 3.36 0.71
 8 6 -13 3.95 1.62
 8 -6 -13 2.52 0.5
 -8 -6 13 4.53 0.86
 8 -6 -12 3.42 0.82
 8 6 -12 2.82 1.74
 8 -6 -12 2.95 0.54
 -8 -6 12 4.11 0.94
 -8 -6 11 19.41 1.08
 8 -6 -11 17.42 1.22
 -8 -6 11 20.64 1.27
 8 -6 -11 18.47 1.31
 8 -6 -11 17.17 1.77
 8 -6 -10 1.41 1.66
 -8 -6 10 -0.02 0.6
 8 -6 -10 -0.04 0.92
 8 -6 -10 0.28 0.52
 -8 -6 10 0.34 1
 8 -6 -10 -0.43 1.01
 8 -6 -9 9.5 1.78
 -8 -6 9 9.23 0.86
 8 -6 -9 9.71 1.18
 8 -6 -9 5.14 0.7
 8 -6 -9 9.24 1.17
 8 -6 -8 0.7 1.75
 -8 -6 8 1.73 0.69
 8 6 -8 0.16 1.97
 8 -6 -8 0.02 0.7
 8 -6 -7 0.52 1.78
 -8 -6 7 0.87 0.68
 8 6 -7 0.81 2.01
 8 -6 -7 0.4 0.7
 8 -6 -6 -0.58 1.82
 -8 -6 6 0.39 0.69
 8 -6 -6 0.13 1.07
 8 6 -6 -2.87 2.12
 8 -6 -6 0.6 0.73
 8 -6 -6 0.78 1.08
 8 -6 -5 0.61 1.81
 -8 -6 5 0.27 0.68
 8 -6 -5 0.43 1.09
 8 6 -5 0.35 2.53
 8 -6 -5 0.09 0.72
 8 -6 -5 0.06 1.07
 8 -6 -4 0.17 1.84
 -8 -6 4 0.45 0.75
 8 -6 -4 0.52 1.07
 8 -6 -4 0.03 0.71
 8 -6 -4 0.32 1.09
 8 -6 -3 0.01 1.82
 8 -6 -3 -0.11 1.04
 8 -6 -3 -0.15 0.71
 8 6 -3 -0.44 5.61
 8 -6 -3 -0.39 1.08
 8 -6 -2 17.1 2.01
 8 -6 -2 16.4 1.38
 8 6 -2 15.35 2.11
 8 -6 -2 20.36 1.49
 8 -6 -2 18.7 1.19
 8 -6 -1 2.35 0.75
 8 -6 -1 2.38 0.96
 8 6 -1 -0.88 7.68
 8 6 -1 5.12 1.99
 8 -6 -1 2.91 1.12
 8 -6 0 35.39 1.9
 8 -6 0 38.76 2.03
 8 -6 0 39.54 1.89
 8 -6 1 0.02 0.66
 8 6 1 1.63 1.94
 8 -6 2 -0.03 0.65
 8 6 2 3.44 1.97
 8 6 3 -0.47 1.91
 8 6 4 2.24 1.89
 8 6 5 1.22 1.85
 8 6 6 1.8 1.2
 8 6 6 0.94 1.82
 -8 -6 -7 1.47 0.61
 8 6 7 0.63 1.18
 8 -6 7 0.86 1.06
 8 -6 8 0.18 0.52
 -8 -6 -8 0.5 0.6
 8 6 8 0.12 1.13
 8 -6 8 -0.28 1
 8 6 9 8.18 1.21
 -8 -6 -9 9.64 0.8
 8 -6 9 10.08 1.12
 -8 -6 -10 0.08 0.48
 8 6 10 -0.21 0.97
 8 6 10 -0.5 1.47
 -9 1 21 0.2 0.94
 -9 -1 21 -0.26 0.98
 -9 -1 21 -0.56 0.59
 -9 1 21 -0.16 1.01
 9 -1 -21 -0.3 1.38
 -9 1 20 4.41 1.1
 -9 -1 20 3.21 0.74
 -9 -1 20 3.09 1.12
 9 -1 -20 4.86 1.6
 9 -1 -19 0.76 0.7
 -9 1 19 0.9 1.1
 -9 -1 19 1.07 1.17
 -9 -1 19 0.87 0.72
 9 -1 -18 0.17 0.74
 -9 1 18 -0.66 1.16
 -9 -1 18 0.11 1.2
 9 -1 -17 4.41 0.89
 -9 1 17 4.34 1.04
 -9 -1 17 4.23 1.05
 -9 -1 17 4.28 1.31
 9 -1 -16 2.78 0.91
 -9 1 16 2.54 1.05
 -9 -1 16 0.89 1
 -9 -1 16 3.11 1.34
 9 -1 -15 1.19 0.88
 -9 1 15 -0.93 1.08
 -9 -1 15 -0.55 1.03
 9 1 -15 3.21 2.12
 -9 -1 15 -0.04 1.29
 -9 1 15 -0.14 1.27
 9 1 -14 2.84 0.81
 9 -1 -14 1.59 0.93
 -9 1 14 2.44 1.09
 -9 -1 14 2.87 1.08
 9 1 -14 1.64 2.09
 -9 -1 14 2.45 1.33
 -9 1 14 3.25 1.3
 9 1 -13 2.58 0.83
 9 -1 -13 1.05 0.9
 -9 -1 13 2.38 1.08
 -9 -1 13 2.14 1.29
 -9 1 13 1.8 1.32
 9 1 -12 1.6 0.81
 9 -1 -12 1.23 0.91
 -9 -1 12 0.77 1.06
 -9 -1 12 1.6 1.27
 -9 1 12 1.68 1.26
 9 1 -11 16.02 1.19
 9 -1 -11 15.73 1.29
 -9 -1 11 17.81 1.58
 -9 1 11 15.65 1.54
 9 1 -10 8.36 0.96
 9 -1 -10 8.58 1.01
 9 1 -10 11.04 2.37
 -9 -1 10 7.83 1.37
 -9 1 10 8.45 1.34
 9 1 -9 5.87 0.92
 9 -1 -9 5.09 0.95
 9 -1 -9 5.96 0.84
 -9 -1 9 5.85 1.33
 -9 1 9 5.28 1.28
 9 1 -8 0.99 0.76
 9 -1 -8 0.84 0.86
 9 -1 -8 1.39 0.71
 9 1 -8 -1.54 2.35
 -9 -1 8 0.36 1.22
 -9 1 8 1.14 1.19
 9 1 -7 10.76 1.01
 9 -1 -7 10.18 1.02
 9 -1 -7 10.14 1.04
 9 1 -7 10.51 0.96
 9 1 -7 13.8 2.34
 -9 -1 7 12.24 1.37
 -9 1 7 10.41 1.35
 9 -1 -7 10.02 0.92
 9 -1 -6 0.08 0.67
 9 1 -6 -0.15 0.71
 9 -1 -6 0.66 0.85
 9 -1 -6 -0.13 0.69
 9 1 -6 1.09 2.24
 -9 -1 6 0.55 1.2
 -9 1 6 0.37 1.15
 -9 -1 6 0.09 0.48
 9 -1 -5 0.21 0.67
 9 1 -5 -0.03 0.71
 9 -1 -5 -0.33 0.82
 9 -1 -5 -0.37 0.74
 9 1 -5 1.26 2.26
 -9 1 5 -0.92 1.14
 -9 -1 5 -0.12 1.18
 -9 -1 5 -0.14 0.51
 9 1 -5 -0.31 1.38
 9 -1 -4 1.53 0.78
 9 -1 -4 2.38 0.71
 9 1 -4 1.76 0.75
 9 -1 -4 1.63 0.8
 9 -1 -4 1.64 0.74
 9 1 -4 4.53 2.23
 -9 -1 4 1.29 1.1
 -9 -1 4 1.47 0.6
 9 1 -4 1.84 1.41
 9 -1 -3 0.15 0.67
 9 1 -3 1.51 0.72
 9 -1 -3 -0.04 0.78
 9 -1 -3 0.99 0.7
 -9 -1 3 0.32 1.08
 -9 -1 3 1.44 0.56
 9 1 -3 1.3 1.48
 9 1 -3 2.11 2.01
 9 -1 -3 0.49 1.63
 9 -1 -2 -0.56 0.7
 9 -1 -2 0.26 0.79
 9 -1 -2 -0.16 0.63
 9 1 -2 -0.03 0.63
 -9 1 2 0.03 1
 -9 -1 2 0.72 1.09
 -9 -1 2 0.58 0.52
 9 1 -2 0.45 1.54
 9 -1 -2 0.6 1.66
 9 1 -2 -0.96 2.01
 9 -1 -1 11.29 0.96
 9 1 -1 11.95 0.91
 -9 1 1 10.98 1.21
 -9 -1 1 10.43 1.3
 9 1 -1 11.45 1.75
 9 -1 -1 12.5 1.83
 9 1 -1 12.08 2.1
 9 -1 -1 12.11 0.97
 9 -1 0 1.06 0.7
 9 1 0 0.15 0.6
 -9 -1 0 0.07 1.05
 9 1 0 0.69 1.65
 9 -1 0 0.49 1.72
 9 1 0 0.35 2.04
 9 -1 0 0.02 1.25
 9 -1 0 -0.07 0.69
 9 1 1 0.52 0.69
 9 -1 1 0.64 0.69
 9 1 1 0.42 0.59
 -9 -1 -1 0.79 1.05
 9 1 1 0.61 1.68
 9 -1 1 0.36 1.28
 9 1 1 1.18 1.25
 9 1 2 0.4 0.7
 9 -1 2 1.39 0.74
 -9 -1 -2 0.75 1.09
 -9 -1 -2 1.08 0.6
 9 1 2 1.44 1.71
 9 -1 2 0.39 1.23
 9 1 2 0.51 1.3
 9 1 3 1.74 2.1
 9 -1 3 0.08 0.65
 -9 -1 -3 0.24 0.61
 9 1 3 0.59 1.74
 9 -1 3 0.3 1.7
 9 -1 3 0.75 0.72
 9 -1 3 0.58 1.31
 9 1 3 1.26 1.29
 9 1 3 0.49 0.72
 9 -1 4 -0.62 0.73
 -9 -1 -4 0.64 0.63
 9 1 4 0.02 1.81
 9 -1 4 0.67 1.75
 9 1 4 -0.24 2.11
 9 1 4 0.01 1.22
 9 -1 4 0.13 1.29
 9 -1 4 -0.53 0.69
 9 -1 4 0.23 1.33
 9 1 4 -0.31 1.31
 9 -1 5 -0.24 0.73
 9 -1 5 0.68 1.71
 9 1 5 0.72 2.13
 9 1 5 0.43 1.26
 9 -1 5 0.56 1.28
 9 -1 5 0.49 0.7
 9 -1 5 0.31 1.36
 9 1 5 -0.26 1.34
 9 -1 6 5.28 0.9
 9 -1 6 5.69 1.81
 9 1 6 7.07 2.21
 9 1 6 4.02 1.36
 9 -1 6 5.33 1.36
 9 -1 6 3.77 0.9
 9 -1 6 5.17 1.46
 9 1 6 4.73 1.44
 9 -1 7 0.43 0.75
 9 1 7 -1.33 1.93
 9 -1 7 1.09 1.72
 9 1 7 -0.52 2.17
 9 1 7 0.53 1.32
 9 -1 7 1.61 1.3
 9 -1 7 0.46 0.81
 9 -1 7 -0.57 1.43
 9 1 7 0.47 1.39
 9 1 7 0.15 0.81
 9 -1 8 7.38 0.97
 9 1 8 9 1.98
 9 -1 8 4.9 1.76
 9 1 8 7.34 2.23
 9 1 8 6.85 1.42
 9 -1 8 7.98 1.39
 9 -1 8 5.99 0.99
 9 -1 8 7.91 1.54
 9 1 8 8.45 1.51
 9 1 8 6.6 0.96
 9 1 9 24.6 2.2
 9 -1 9 16.11 1.96
 9 -1 9 21.03 1.83
 9 1 9 19.4 1.79
 9 1 9 18.94 2.36
 9 1 9 19.65 1.68
 9 -1 9 20.22 1.68
 9 1 9 20.93 1.39
 9 -1 10 11.77 1.08
 9 1 10 11.49 1.98
 9 -1 10 8.41 1.73
 9 1 10 10.27 1.51
 9 -1 10 12.39 1.46
 9 -1 10 12.06 1.63
 9 1 10 12.02 1.61
 9 1 10 11.25 1.1
 9 -1 11 9.81 1.02
 9 1 11 8.39 1.94
 9 -1 11 6.93 1.59
 9 1 11 9.2 1.49
 9 -1 11 9.31 1.42
 9 -1 11 11.22 1.6
 9 1 11 11.38 1.61
 9 1 11 10.05 1.06
 9 -1 12 0.54 0.78
 9 1 12 0.52 1.74
 9 1 12 0.56 1.36
 9 -1 12 0.79 1.29
 9 -1 12 0.12 0.88
 9 -1 12 0.72 1.45
 9 1 12 0.07 1.47
 9 1 12 1.04 0.83
 9 -1 13 -0.13 0.7
 9 1 13 -0.92 1.57
 9 1 13 0.72 1.34
 9 -1 13 0.16 1.29
 9 -1 13 -0.16 0.88
 9 -1 13 1.09 1.44
 9 1 13 1.37 1.42
 9 1 13 -0.1 0.73
 9 1 14 3.02 1.36
 9 -1 14 3.91 0.94
 9 1 14 3.24 1.42
 9 1 14 1.92 1.48
 9 1 14 3.92 0.81
 9 1 15 -0.14 1.24
 9 1 15 0.33 1.24
 9 -1 15 0.77 0.79
 9 1 15 0.58 1.31
 9 1 15 0.02 0.66
 9 1 16 -0.38 1.17
 9 -1 16 0.13 0.72
 9 1 16 -0.07 1.24
 9 1 16 -0.21 0.62
 9 1 17 0.26 0.51
 9 1 17 -0.43 1.11
 9 -1 17 0.26 1.12
 9 -1 17 -0.02 0.64
 9 1 17 -0.45 1.12
 9 1 18 1.28 1
 9 1 18 1.33 1.01
 -9 3 20 0.27 0.88
 -9 -3 20 0.13 0.88
 -9 -3 20 0.59 0.48
 -9 3 19 1.88 0.99
 -9 -3 19 2.34 1.03
 -9 -3 19 1.7 0.59
 9 -3 -19 2.3 1.46
 -9 -3 18 2.79 0.69
 -9 3 18 2.24 1.06
 9 3 -18 2.84 1.88
 -9 -3 18 2.67 1.1
 9 -3 -18 2.24 1.6
 -9 3 17 0.94 1.15
 9 3 -17 0.65 2.02
 -9 -3 17 0.02 1.16
 -9 -3 17 0.15 0.68
 9 -3 -17 -0.39 1.71
 9 3 -16 119.39 5.28
 -9 -3 16 121.27 5.1
 -9 -3 16 119.58 5
 9 -3 -16 135.82 5.27
 -9 -3 15 4.15 1.32
 9 3 -15 5.71 2.18
 -9 -3 15 3.09 0.82
 9 -3 -15 3.33 1.89
 9 -3 -14 19.75 1.39
 -9 -3 14 21.02 1.51
 9 3 -14 24.23 2.35
 -9 -3 14 23.09 1.68
 9 -3 -14 18.33 1.51
 9 -3 -14 19.15 1.33
 9 -3 -13 0.02 0.87
 -9 -3 13 0.86 1.07
 -9 -3 13 0.34 0.67
 9 -3 -13 0.4 0.82
 -9 -3 13 -1.19 1.34
 9 -3 -12 12.08 1.18
 -9 -3 12 13.86 1.33
 -9 -3 12 13.86 1.08
 -9 -3 12 15.23 1.56
 9 -3 -12 13.15 1.17
 9 -3 -11 1.93 0.91
 -9 -3 11 1.41 1.09
 -9 -3 11 2.09 0.75
 9 -3 -11 2.04 0.91
 -9 -3 11 1.49 1.33
 9 -3 -11 0.33 1.95
 9 -3 -10 6.77 1
 -9 -3 10 6.76 1.22
 -9 -3 10 6.38 0.85
 9 -3 -10 6.01 0.98
 9 3 -10 9.84 2.26
 -9 -3 10 5.71 1.39
 9 -3 -10 7.11 2.04
 9 -3 -9 0.34 0.81
 -9 -3 9 0.59 1.09
 -9 -3 9 0.59 0.73
 9 -3 -9 0.85 0.86
 9 3 -9 0.09 2.27
 -9 -3 9 -0.58 1.33
 9 -3 -9 0.45 2.04
 9 -3 -8 4.07 0.91
 -9 -3 8 3.04 1.12
 -9 -3 8 3.31 0.76
 9 -3 -8 4.14 0.94
 9 3 -8 4.88 2.35
 -9 -3 8 3.55 1.34
 9 -3 -8 2.87 2.05
 9 -3 -7 10.38 1.06
 -9 -3 7 11.83 1.27
 9 -3 -7 9.24 1.1
 -9 -3 7 13.58 1.47
 9 -3 -7 10.3 2.14
 9 -3 -6 1 0.81
 -9 -3 6 1.83 1.09
 9 -3 -6 2.34 0.89
 9 3 -6 1.66 2.37
 9 -3 -6 1.75 0.77
 -9 -3 6 3.36 1.28
 9 3 -6 2.88 2.11
 9 -3 -6 2.51 2.02
 9 -3 -5 8 0.95
 9 -3 -5 7.6 1
 9 -3 -5 6.12 0.91
 9 3 -5 6.7 2.4
 -9 -3 5 7.72 1.36
 9 3 -5 9 2.13
 9 -3 -5 6.68 2.03
 9 -3 -4 0.4 0.75
 9 -3 -4 0.74 0.85
 9 -3 -4 0.02 0.82
 9 -3 -4 0.38 0.74
 9 3 -4 0.3 2.34
 -9 -3 4 0.87 1.23
 9 3 -4 0.04 2.12
 9 -3 -4 0.99 1.9
 9 -3 -3 0.5 0.73
 9 -3 -3 1.32 0.88
 9 -3 -3 0.2 0.8
 9 -3 -3 0.74 0.74
 9 3 -3 -1.44 2.34
 -9 -3 3 0.33 1.23
 -9 -3 3 0.14 0.63
 9 3 -3 -0.01 2.12
 9 -3 -3 0.08 1.86
 9 -3 -2 1.03 0.73
 9 -3 -2 0.58 0.87
 9 -3 -2 -0.06 0.81
 9 -3 -2 0.28 0.72
 9 3 -2 -1.32 2.31
 -9 -3 2 0.33 1.23
 -9 -3 2 0.61 0.64
 9 3 -2 1.5 2.11
 9 -3 -1 0.25 0.71
 9 -3 -1 -0.39 0.88
 9 -3 -1 -0.58 0.81
 9 -3 -1 -0.45 0.76
 9 3 -1 -0.24 1.5
 -9 -3 1 0.37 0.69
 -9 -3 1 -0.02 1.25
 9 3 -1 0.63 2.09
 9 -3 0 10.3 0.91
 9 -3 0 8.35 1.05
 9 -3 0 9.65 1.05
 9 -3 0 8.02 0.96
 -9 -3 0 10.01 0.99
 -9 -3 0 10.22 1.32
 9 3 0 11.62 1.67
 -9 -3 0 10.48 0.97
 9 3 0 12.23 2.17
 9 3 1 -0.04 0.73
 9 -3 1 -0.2 0.9
 9 -3 1 -0.13 0.79
 9 -3 1 0.04 0.78
 -9 -3 -1 -0.16 1.12
 -9 -3 -1 0.6 0.74
 9 3 1 -0.55 1.67
 9 3 1 1.14 2.09
 9 -3 2 3.71 0.85
 9 -3 2 4.37 0.91
 -9 -3 -2 2.89 1.22
 -9 -3 -2 3.74 0.82
 9 3 2 4.89 1.79
 9 -3 2 3.16 1.29
 9 3 2 3.97 2.11
 9 3 2 2.57 0.79
 9 -3 3 5.18 0.94
 -9 -3 -3 5.08 1.22
 -9 -3 -3 4.64 0.82
 9 3 3 5.89 1.86
 9 -3 3 4.33 1.36
 -9 -3 -3 5.2 0.8
 9 3 3 4.91 0.89
 9 3 4 59.81 2.96
 -9 -3 -4 54.25 2.49
 -9 -3 -4 50.67 2.6
 9 -3 4 50.52 2.63
 -9 -3 -4 51.47 2.4
 9 -3 4 47.7 2.33
 9 3 4 51.42 2.43
 -9 -3 -5 1.18 1.18
 -9 -3 -5 2.15 0.79
 9 3 5 3.18 2.01
 9 -3 5 3.57 1.33
 -9 -3 -5 1.74 0.7
 9 3 5 0.9 2.15
 9 -3 5 1.13 0.73
 9 -3 5 1.74 0.87
 9 3 5 2.31 0.85
 9 -3 6 27.13 1.69
 -9 -3 -6 28.79 1.65
 -9 -3 -6 25.54 1.82
 9 -3 6 29.71 1.91
 9 -3 6 26.57 1.91
 -9 -3 -6 25.8 1.51
 9 3 6 28.18 2.5
 9 -3 6 25.82 1.55
 9 -3 6 28 1.71
 9 3 6 31.03 1.66
 9 -3 7 0.17 0.87
 -9 -3 -7 0.27 0.76
 -9 -3 -7 0.04 1.13
 9 3 7 1.25 2.12
 9 -3 7 0.04 1.3
 -9 -3 -7 0.24 0.61
 9 3 7 1.78 2.22
 9 -3 7 -0.5 0.76
 9 -3 7 -0.56 1.33
 9 3 7 0.81 1.37
 9 3 7 0.54 0.88
 9 -3 8 3.02 0.9
 -9 -3 -8 1.76 0.79
 -9 -3 -8 1.02 1.16
 9 3 8 4.35 2.14
 9 -3 8 2.43 1.32
 -9 -3 -8 1.66 0.65
 9 3 8 2.86 2.22
 9 -3 8 1.2 0.8
 9 -3 8 2.04 1.41
 9 3 8 2.71 1.36
 9 3 8 3.58 0.88
 9 -3 9 0.9 0.89
 -9 -3 -9 -0.43 0.75
 -9 -3 -9 0.02 1.12
 9 3 9 -0.22 2.06
 -9 -3 -9 -0.25 0.61
 9 3 9 -0.2 2.24
 9 -3 9 0.78 0.8
 9 -3 9 -0.2 1.38
 9 3 9 0.65 0.82
 9 -3 10 -0.65 0.94
 -9 -3 -10 -0.65 0.73
 -9 -3 -10 -0.32 1.11
 -9 -3 -10 0.3 0.58
 9 3 10 0.27 2.15
 9 -3 10 0.92 0.8
 9 -3 10 -0.35 1.37
 9 3 10 0.57 0.81
 9 -3 11 0.73 0.83
 -9 -3 -11 0.24 0.72
 -9 -3 -11 0.42 1.08
 9 -3 11 0.06 1.25
 -9 -3 -11 -0.09 0.5
 9 3 11 2.57 2.09
 9 -3 11 -0.37 0.81
 9 -3 11 0.4 1.35
 9 3 11 0.57 0.79
 9 -3 12 3.13 0.88
 -9 -3 -12 2.58 0.76
 -9 -3 -12 2 1.02
 9 3 12 3.15 1.71
 9 -3 12 2 0.8
 9 -3 12 3.46 1.35
 9 3 12 2.16 0.78
 9 -3 13 7.07 0.93
 -9 -3 -13 6.55 0.83
 9 3 13 8.7 1.63
 9 -3 13 7.41 0.9
 9 -3 13 9.16 1.37
 9 3 13 7.66 0.91
 9 -3 14 8.83 0.92
 -9 -3 -14 6.93 0.82
 9 3 14 10.28 1.51
 9 -3 14 10.16 0.91
 9 -3 14 8.11 0.91
 9 -3 14 9.24 1.32
 9 3 14 10.36 0.91
 9 -3 15 11.52 0.93
 9 3 15 14.71 1.34
 -9 -3 -15 9.54 0.83
 9 -3 15 9.63 0.9
 9 -3 15 11.55 0.89
 9 -3 15 12.82 1.26
 9 -3 16 0.45 0.55
 9 3 16 0.99 0.96
 9 -3 16 0.71 0.57
 9 3 16 0.85 0.53
 9 -3 16 1.17 0.54
 9 -5 -15 0.07 1.41
 -9 -5 15 0.61 0.97
 9 5 -15 1.27 1.68
 9 -5 -15 0.08 0.45
 9 -5 -14 1.18 0.78
 9 5 -14 0.92 1.76
 9 -5 -14 0.49 0.51
 9 -5 -14 0.05 0.87
 9 -5 -13 -0.46 0.92
 9 -5 -13 -0.24 0.54
 -9 -5 13 0.26 0.92
 9 -5 -13 -0.06 0.93
 9 -5 -12 1 1.68
 -9 -5 12 0.36 0.63
 9 -5 -12 0.6 0.98
 9 -5 -12 -0.19 0.59
 9 -5 -12 0.87 1.04
 9 -5 -11 9.67 1.84
 -9 -5 11 7.79 0.79
 9 -5 -11 8.1 1.19
 9 -5 -11 4.64 0.74
 9 -5 -11 7.49 0.92
 9 -5 -11 7.27 1.17
 9 -5 -10 -0.54 1.83
 -9 -5 10 0.27 0.64
 9 -5 -10 1.58 1.13
 9 5 -10 0.19 2.04
 9 -5 -10 -0.57 0.59
 9 -5 -10 -0.13 1.11
 9 -5 -9 0.24 1.85
 -9 -5 9 0.53 0.71
 9 -5 -9 0.59 1.19
 9 5 -9 0.77 2.07
 9 -5 -9 0.39 0.58
 9 -5 -9 0.27 1.1
 9 -5 -8 0.22 1.89
 -9 -5 8 -0.04 0.7
 9 5 -8 2.13 2.16
 9 -5 -8 0.02 0.58
 9 -5 -8 0.3 1.11
 9 -5 -7 0.56 1.95
 -9 -5 7 0.83 0.74
 9 -5 -7 0.92 0.85
 9 5 -7 1.27 2.17
 9 -5 -6 1.63 1.93
 -9 -5 6 1.1 0.78
 9 -5 -6 1.23 0.88
 9 5 -6 -0.39 2.22
 9 -5 -5 0.74 1.94
 9 -5 -5 0.64 0.88
 9 5 -5 1.58 2.26
 9 -5 -4 0.65 1.9
 9 -5 -4 1.44 0.83
 9 5 -4 1.49 2.28
 9 5 -4 0.35 2.02
 9 -5 -3 0.06 1.9
 9 -5 -3 -0.47 0.85
 9 5 -3 -0.15 2.26
 9 5 -3 -1.78 2.08
 9 -5 -2 0.3 0.84
 9 -5 -2 0.88 1.12
 9 -5 -2 -0.3 0.63
 9 5 -2 2.29 2.25
 9 5 -2 -2.61 2.06
 9 -5 -1 15.87 1.1
 9 -5 -1 15.13 1.38
 9 -5 -1 17.12 1.27
 9 -5 0 13.68 1.04
 9 -5 0 12.57 1.25
 9 -5 0 15.34 1.21
 9 -5 1 19.69 1.28
 9 -5 1 21.17 1.58
 9 -5 1 22.52 1.4
 9 -5 2 7.43 0.89
 9 5 2 9.65 2.04
 9 -5 2 7.09 1.2
 9 -5 2 8.97 0.98
 9 -5 3 0.29 0.73
 9 -5 3 -0.4 0.73
 9 5 3 -0.39 1.45
 9 5 3 0.76 2
 9 -5 4 -0.24 0.78
 9 -5 4 -0.35 0.77
 9 5 4 1.7 1.48
 9 5 4 -1.01 1.99
 9 -5 5 -0.11 0.73
 9 -5 5 -0.42 0.76
 -9 -5 -5 0.83 0.75
 9 5 5 0.52 1.51
 9 -5 5 -0.1 1.18
 9 5 5 -2.49 1.98
 9 -5 6 0.89 0.73
 9 -5 6 -0.02 0.69
 -9 -5 -6 -0.17 0.66
 9 5 6 0.75 1.51
 9 -5 6 -0.22 1.21
 9 -5 7 -0.75 0.7
 9 -5 7 -0.41 0.71
 -9 -5 -7 0.67 0.7
 9 5 7 -1.19 1.49
 9 -5 7 0.33 1.18
 9 5 8 -0.27 0.58
 9 -5 8 -0.01 0.63
 9 -5 8 0.38 0.7
 -9 -5 -8 0.1 0.63
 9 5 8 -0.61 1.43
 9 -5 8 0.34 1.15
 9 5 8 -0.26 1.88
 9 5 9 0.26 0.56
 9 -5 9 -0.11 0.66
 -9 -5 -9 0.17 0.6
 9 5 9 -0.88 1.4
 9 -5 9 -0.09 1.14
 9 5 9 -0.78 1.82
 9 5 10 -0.36 0.53
 9 -5 10 -0.22 0.61
 -9 -5 -10 -0.15 0.59
 9 5 10 -0.01 1.29
 9 5 10 0.78 1.67
 9 5 11 0.8 0.52
 9 -5 11 0.54 0.58
 -9 -5 -11 1.18 0.59
 9 5 11 1 1.17
 9 5 11 0.94 1.55
 9 -5 12 -0.17 0.51
 -9 -5 -12 0.49 0.47
 9 5 12 0.36 1.03
 -10 0 20 0.97 0.57
 -10 0 19 0.68 1
 -10 0 19 -0.38 0.65
 -10 0 19 0.42 1.05
 10 0 -18 -0.31 0.68
 -10 0 18 0.98 1.09
 -10 0 18 0.56 1.13
 10 0 -17 -0.26 0.72
 -10 0 17 0.18 0.98
 -10 0 17 -0.74 1.18
 10 0 -16 3.22 0.81
 -10 0 16 2.42 1.05
 -10 0 16 3.49 1.28
 10 0 -15 -0.07 0.77
 -10 0 15 0.38 1.03
 -10 0 15 -0.95 1.25
 10 0 -14 1.72 0.86
 -10 0 14 0.94 1.06
 -10 0 14 2.1 1.29
 10 0 -13 1.01 0.86
 -10 0 13 -0.88 1.07
 -10 0 13 0.16 1.31
 10 0 -12 34.87 1.95
 -10 0 12 41.07 2.22
 10 0 -11 0.27 0.88
 -10 0 11 0.46 1.31
 10 0 -10 121.42 5.13
 -10 0 10 128.53 5.22
 10 0 -9 -0.02 0.9
 -10 0 9 -0.02 1.26
 10 0 -8 1.99 0.9
 -10 0 8 2.78 1.29
 10 0 -7 -0.06 0.86
 10 0 -7 -0.42 0.85
 -10 0 7 -0.55 1.24
 10 0 -6 10.13 1.08
 10 0 -6 9.96 1.04
 -10 0 6 9.69 1.34
 10 0 -5 -0.39 0.85
 10 0 -5 0.44 0.86
 -10 0 5 -0.59 1.24
 10 0 -4 6.89 0.97
 10 0 -4 5.66 0.82
 -10 0 4 6.08 1.16
 -10 0 4 5.55 0.66
 10 0 -4 5.48 1.73
 10 0 -3 -0.38 0.84
 10 0 -3 0.47 0.73
 -10 0 3 0.29 1.07
 -10 0 3 -0.18 0.54
 10 0 -3 -0.18 1.71
 10 0 -2 3.09 0.86
 10 0 -2 4.34 0.82
 -10 0 2 3.25 1.12
 10 0 -2 3.35 1.8
 10 0 -1 -0.2 0.66
 10 0 -1 0.63 0.72
 -10 0 1 0.37 1.11
 10 0 -1 -0.9 1.83
 10 0 0 0.19 0.72
 -10 0 0 0.75 1.1
 10 0 0 -0.18 1.84
 10 0 0 0.56 0.67
 10 0 1 0.09 0.7
 -10 0 -1 -0.04 1.09
 10 0 1 0.36 1.93
 10 0 2 -0.28 0.69
 -10 0 -2 0.29 1.14
 10 0 2 -0.02 1.95
 10 0 3 0.11 0.69
 10 0 4 0.79 0.71
 10 0 4 0.38 1.3
 10 0 5 0.56 0.67
 10 0 5 0.69 1.93
 10 0 5 -0.25 1.31
 10 0 6 0.88 0.69
 10 0 6 3.34 2.03
 10 0 6 1.92 1.37
 10 0 7 -0.07 0.76
 10 0 7 0.09 0.67
 10 0 7 0.21 1.93
 10 0 7 0.12 1.36
 10 0 7 -0.09 1.33
 10 0 8 39.15 2.73
 10 0 8 44.31 2.45
 10 0 8 42.76 2.36
 10 0 8 42.48 2.12
 10 0 9 -0.72 0.8
 10 0 9 0.47 1.84
 10 0 9 0.18 1.34
 10 0 9 0.05 1.39
 10 0 10 24.19 2.23
 10 0 10 27.65 1.98
 10 0 10 27.33 1.91
 10 0 10 27.77 1.57
 10 0 11 -0.72 0.74
 10 0 11 -0.25 1.64
 10 0 11 -0.73 1.31
 10 0 11 0.93 1.43
 10 0 12 0.72 0.69
 10 0 12 0.61 1.5
 10 0 12 1.39 1.29
 10 0 12 0.19 1.38
 10 0 13 0.04 1.3
 10 0 13 0.29 1.28
 10 0 13 -0.44 1.32
 10 0 14 -0.64 1.26
 10 0 14 -0.19 1.29
 10 0 15 0.3 1.16
 10 0 15 0.08 1.23
 10 0 16 0.39 1.08
 10 0 16 0.77 1.13
 10 0 17 -0.3 0.98
 10 0 17 -0.13 1
 -10 2 20 1.71 0.86
 -10 -2 20 1.51 0.92
 -10 2 19 -0.09 0.96
 -10 -2 19 0.93 1.04
 10 -2 -19 1.1 1.45
 10 -2 -18 0.03 0.66
 -10 -2 18 0.34 1.11
 10 -2 -18 -0.7 1.61
 10 -2 -17 3.39 0.82
 -10 -2 17 3.63 0.76
 -10 -2 17 4.01 1.24
 10 -2 -17 3.42 1.76
 10 -2 -16 -0.02 0.76
 -10 -2 16 -0.46 0.98
 10 2 -16 1.82 2.08
 -10 -2 16 0.29 1.21
 10 -2 -16 0.82 1.8
 10 -2 -15 9.85 1.06
 -10 -2 15 10.36 1.4
 10 -2 -14 0.1 0.84
 -10 -2 14 0.98 1.26
 10 -2 -13 0.85 0.89
 10 -2 -13 1.06 0.77
 -10 -2 13 0.67 1.27
 -10 -2 12 0.22 1.07
 10 2 -12 0.14 2.25
 10 -2 -12 0.6 0.77
 -10 -2 12 -0.37 1.27
 -10 -2 11 1.31 1.08
 10 -2 -11 0.81 0.77
 10 2 -11 1.93 2.3
 10 2 -10 0.48 0.74
 -10 -2 10 0.51 1.07
 10 -2 -10 -0.39 0.78
 10 2 -9 0.73 0.8
 10 -2 -9 0.23 0.91
 10 -2 -9 0.91 0.83
 10 2 -9 -0.46 2.34
 10 2 -8 0.73 0.79
 10 -2 -8 0.15 0.88
 10 -2 -8 0.37 0.82
 10 2 -8 3.16 2.37
 10 2 -7 3.71 0.88
 10 -2 -7 3.48 0.95
 10 -2 -7 3.36 0.9
 10 2 -7 0.38 2.42
 10 -2 -6 21.18 1.41
 10 -2 -6 19.69 1.36
 10 2 -6 25.88 2.59
 10 -2 -6 22.1 1.4
 10 -2 -6 20.34 2.27
 10 -2 -5 16.32 1.25
 10 -2 -5 16.36 1.23
 10 2 -5 17.77 2.5
 -10 -2 5 15.46 1.1
 10 -2 -5 16.81 1.25
 10 -2 -5 18.8 2.14
 10 -2 -4 9.34 1.01
 10 -2 -4 8.25 1.02
 10 2 -4 9.1 2.42
 -10 -2 4 10.24 1.41
 -10 -2 4 9.54 0.88
 10 2 -4 7.07 1.56
 10 2 -4 10.12 2.12
 10 -2 -3 4.43 0.91
 10 -2 -3 4.93 0.94
 -10 -2 3 6.55 1.33
 -10 -2 3 5.3 0.73
 10 2 -3 4.64 1.58
 10 2 -3 4.8 2.09
 10 -2 -2 1.81 0.81
 10 -2 -2 2.8 0.87
 10 -2 -2 2.55 0.89
 -10 -2 2 3.17 1.17
 10 2 -2 3.83 1.67
 -10 -2 2 2.33 0.73
 10 2 -2 4.59 2.07
 10 -2 -1 1.27 0.81
 10 -2 -1 1.91 0.91
 10 -2 -1 2.15 0.89
 10 -2 -1 2.29 0.85
 -10 -2 1 3.4 1.16
 10 2 -1 1.77 1.72
 -10 -2 1 1.83 0.71
 10 2 -1 0.09 2.03
 10 -2 0 -0.47 0.79
 10 -2 0 0.21 0.85
 10 -2 0 0.33 0.87
 10 -2 0 -0.61 0.79
 -10 -2 0 -0.41 1.13
 10 2 0 -1.01 1.78
 -10 -2 0 0.1 0.61
 10 2 0 1.9 2.04
 10 -2 1 0.82 0.86
 10 -2 1 -0.41 0.77
 10 -2 1 -0.17 0.88
 10 -2 1 0.33 0.72
 -10 -2 -1 0.68 1.14
 10 2 1 0.66 1.83
 -10 -2 -1 -0.02 0.69
 10 2 1 -1.91 2.06
 10 2 2 8.55 1.01
 10 -2 2 8.75 1.04
 10 2 2 11.48 1.96
 -10 -2 -2 8.33 0.9
 10 -2 2 9.27 1.47
 10 -2 2 8.58 1.06
 10 2 3 0.58 0.83
 10 -2 3 0.02 0.84
 -10 -2 -3 0.39 0.68
 10 2 3 1.65 1.96
 -10 -2 -3 0.82 0.7
 10 -2 3 -0.93 1.38
 10 -2 3 0.38 0.89
 10 2 4 0.11 0.83
 10 -2 4 0.02 0.81
 -10 -2 -4 -0.19 1.17
 -10 -2 -4 0.5 0.69
 10 2 4 -0.13 2.03
 10 2 4 -0.65 2.11
 10 -2 4 0.74 1.4
 10 2 4 -0.24 1.41
 10 -2 5 4.41 0.93
 -10 -2 -5 5.22 1.24
 -10 -2 -5 5.17 0.88
 10 2 5 6.63 2.11
 10 2 5 4.29 2.18
 10 -2 5 4.74 1.45
 10 2 5 6.71 1.44
 10 2 5 4.35 0.92
 10 -2 6 4.67 0.92
 -10 -2 -6 4.32 1.25
 -10 -2 -6 4.4 0.8
 10 2 6 5.06 2.16
 -10 -2 -6 4.99 0.85
 10 2 6 6.92 2.21
 10 -2 6 5.38 0.9
 10 -2 6 5.51 1.5
 10 2 6 5.01 1.43
 10 2 6 4.6 0.93
 10 -2 7 0.62 0.87
 -10 -2 -7 0.21 1.2
 -10 -2 -7 0.62 0.7
 10 2 7 0.59 2.13
 -10 -2 -7 -0.15 0.72
 10 2 7 2.03 2.21
 10 -2 7 0.86 0.8
 10 -2 7 0.1 1.42
 10 2 7 -0.49 1.39
 10 2 7 -0.21 0.87
 10 -2 8 0.09 0.86
 -10 -2 -8 0.94 1.18
 -10 -2 -8 0.94 0.7
 -10 -2 -8 -0.33 0.66
 10 2 8 -1.44 2.2
 10 -2 8 0.49 0.81
 10 -2 8 0.47 1.39
 10 2 8 0.4 1.35
 10 2 8 0.62 0.81
 10 -2 9 0.49 0.83
 -10 -2 -9 0.83 1.14
 -10 -2 -9 -0.43 0.68
 -10 -2 -9 0.32 0.64
 10 2 9 1.33 2.16
 10 -2 9 0.71 0.85
 10 -2 9 0.2 1.42
 10 2 9 0.14 1.34
 10 -2 10 0.84 0.82
 -10 -2 -10 0.02 1.16
 10 2 10 0.58 1.89
 -10 -2 -10 -0.85 0.63
 10 2 10 -2.6 2.11
 10 -2 10 0.81 0.81
 10 -2 10 -0.22 1.43
 10 2 10 0.02 1.33
 10 -2 11 0.63 0.8
 -10 -2 -11 -0.04 1.12
 10 2 11 -0.34 1.77
 -10 -2 -11 0.84 0.58
 10 2 11 -0.56 1.26
 10 -2 11 -0.11 0.81
 10 -2 11 -0.14 1.39
 10 2 11 0.13 1.32
 10 2 11 -0.29 0.79
 10 -2 12 0.35 0.74
 -10 -2 -12 -0.1 1.08
 10 2 12 -0.39 1.63
 -10 -2 -12 -0.14 0.51
 10 2 12 -0.21 1.2
 10 -2 12 -0.77 0.82
 10 -2 12 -0.16 1.34
 10 2 12 -0.07 1.25
 10 2 12 0.8 0.72
 10 -2 13 1.18 0.68
 -10 -2 -13 1.37 1.03
 10 2 13 1.97 1.46
 -10 -2 -13 0.9 0.51
 10 2 13 2.84 1.19
 10 -2 13 1.64 0.75
 10 -2 13 2 1.3
 10 2 13 2.01 1.21
 10 2 13 1.66 0.71
 10 -2 14 2.84 0.66
 -10 -2 -14 2.43 0.96
 10 2 14 2.45 1.29
 10 2 14 2.9 1.1
 10 -2 14 2.61 0.72
 10 -2 14 3.68 1.25
 10 2 14 3.86 1.18
 10 2 14 3.69 0.72
 10 2 15 11.44 1.19
 -10 -2 -15 9.09 1.01
 10 2 15 11.19 1.16
 10 -2 15 11.65 1.26
 10 2 15 12.87 1.18
 10 2 15 11.37 0.84
 10 2 16 0.38 0.5
 10 -2 16 0.48 0.99
 10 4 -17 -0.65 1.55
 -10 4 16 6.03 0.98
 10 4 -16 5.28 1.75
 10 -4 -16 2.87 0.55
 -10 -4 16 6.62 0.99
 -10 4 15 0.84 1
 10 -4 -15 0.37 0.79
 10 -4 -15 1.1 0.52
 -10 -4 15 1.58 1.02
 10 -4 -14 9.3 1.04
 -10 -4 14 9.85 1.19
 10 -4 -14 8.26 1.08
 10 -4 -13 2.52 0.74
 10 -4 -13 2.4 0.64
 -10 -4 13 2.57 1.15
 10 -4 -13 1.92 1.03
 10 -4 -13 2.38 1.72
 10 -4 -12 0.18 0.71
 -10 -4 12 -0.39 0.6
 10 4 -12 -0.79 2.05
 10 -4 -12 0.09 0.58
 10 -4 -12 0.02 0.77
 -10 -4 12 -0.2 1.19
 10 -4 -12 -0.58 1.05
 10 -4 -12 0.05 1.79
 10 -4 -11 0.53 0.76
 -10 -4 11 0.34 0.61
 10 4 -11 2.53 2.13
 10 -4 -11 -0.42 0.59
 10 -4 -11 0.66 0.77
 -10 -4 11 0.87 1.2
 10 -4 -11 0.71 1.09
 10 -4 -11 0.38 1.85
 10 -4 -10 0.72 0.75
 -10 -4 10 0.47 0.62
 10 4 -10 -0.82 2.17
 10 -4 -10 0.12 0.83
 10 -4 -10 -0.79 0.6
 -10 -4 10 -0.41 1.23
 10 -4 -10 0.36 1.89
 10 -4 -9 0.46 0.73
 -10 -4 9 0.67 1
 -10 -4 9 0.36 0.66
 10 -4 -9 -0.59 0.88
 10 4 -9 1.84 2.25
 10 -4 -9 -0.12 0.58
 -10 -4 9 0.43 1.24
 10 -4 -9 0.67 1.94
 10 -4 -8 -0.69 0.76
 -10 -4 8 -0.1 0.71
 10 -4 -8 -0.46 0.91
 10 4 -8 2.13 2.27
 -10 -4 8 0.49 1.25
 10 -4 -8 -0.34 1.97
 10 -4 -7 3.38 0.79
 -10 -4 7 3.93 0.77
 10 -4 -7 3.45 0.92
 10 4 -7 1.82 2.27
 -10 -4 7 3.73 1.32
 10 -4 -7 2.73 1.96
 10 -4 -6 10.15 0.96
 -10 -4 6 12.91 1.06
 10 -4 -6 10.54 1.11
 10 4 -6 9.43 2.38
 -10 -4 6 13.02 1.42
 10 -4 -6 10.1 2.07
 10 -4 -5 2.74 0.94
 10 4 -5 6.46 2.34
 10 -4 -5 3.16 0.77
 -10 -4 5 4.48 1.34
 10 4 -5 3.99 2.1
 10 -4 -5 2.52 1.95
 10 -4 -4 0.57 0.9
 10 -4 -4 -0.04 0.72
 10 4 -4 -1.65 2.3
 -10 -4 4 0.67 1.23
 10 4 -4 0.64 2.06
 10 -4 -3 0.67 0.9
 10 -4 -3 0.33 0.74
 10 4 -3 -0.32 2.26
 -10 -4 3 0.72 1.26
 10 4 -3 1.1 2.1
 10 -4 -2 1.06 0.78
 -10 -4 2 1.27 1.21
 10 4 -2 3.12 2.09
 10 -4 -1 1.9 0.78
 -10 -4 1 1.39 1.21
 10 4 -1 2.59 2.05
 10 -4 0 1.51 0.81
 10 -4 0 0.93 0.8
 -10 -4 0 -0.05 1.24
 10 -4 1 0.14 0.87
 10 -4 1 0.17 0.76
 10 -4 1 0.08 0.75
 -10 -4 -1 -0.46 1.19
 10 4 1 0.48 1.55
 10 4 1 -0.86 2.03
 10 -4 2 0.83 0.88
 10 -4 2 1.23 0.77
 10 -4 2 0.7 0.78
 -10 -4 -2 1.14 1.19
 10 4 2 1.18 1.61
 10 4 2 1.32 1.99
 10 -4 3 0.6 0.85
 10 -4 3 0.29 0.73
 10 -4 3 0.76 0.85
 10 4 3 0.38 1.68
 10 4 3 1.16 2
 10 -4 4 1.89 0.9
 10 -4 4 -0.17 0.81
 -10 -4 -4 0.34 0.74
 10 4 4 1.03 1.68
 10 4 5 0.88 0.73
 10 -4 5 1.46 0.85
 10 -4 5 0.81 0.83
 -10 -4 -5 0.31 0.7
 10 4 5 0.82 1.72
 10 4 6 -0.13 0.72
 10 -4 6 0.41 0.8
 10 -4 6 0.1 0.75
 -10 -4 -6 0.11 0.67
 10 4 6 1.01 1.71
 10 4 6 0.04 2
 10 4 7 -0.02 0.7
 10 -4 7 0.21 0.79
 10 -4 7 0.7 0.79
 -10 -4 -7 0.18 0.69
 10 4 7 -0.15 1.68
 10 4 7 1.56 2
 10 4 8 0.18 0.69
 10 -4 8 0.16 0.75
 -10 -4 -8 0.21 0.67
 10 4 8 0.69 1.65
 10 4 8 1.96 1.95
 10 4 9 -0.37 0.68
 10 -4 9 0.05 0.69
 -10 -4 -9 0.14 0.63
 10 4 9 -0.85 1.53
 10 4 9 2.41 1.88
 10 4 10 2.15 0.66
 10 -4 10 1.19 0.7
 -10 -4 -10 0.92 0.66
 10 4 10 0.82 1.45
 10 4 10 0.97 1.8
 10 4 11 0.15 0.61
 10 -4 11 0.4 0.62
 10 -4 11 0.09 0.66
 -10 -4 -11 0.57 0.58
 10 4 11 0.28 1.3
 10 4 11 0.7 1.63
 10 4 12 0.65 0.55
 10 -4 12 0.26 0.54
 10 -4 12 0.7 0.58
 -10 -4 -12 0.34 0.51
 10 4 13 2.6 0.53
 10 -4 13 2.66 0.57
 10 4 13 1.59 1.01
 -10 -6 9 1.61 0.81
 10 -6 -9 0.73 0.85
 -10 -6 8 0.55 0.47
 10 -6 -8 0.35 0.73
 -10 -6 7 -0.2 0.47
 10 -6 -7 -0.05 0.76
 10 -6 -7 0.15 0.56
 10 -6 -7 -0.77 0.89
 -10 -6 6 1.7 0.54
 10 -6 -6 1.72 0.78
 10 -6 -6 1.36 0.59
 10 -6 -6 1.26 0.91
 -10 -6 5 1.35 0.54
 10 -6 -5 1.52 0.79
 10 -6 -5 1.36 0.61
 10 -6 -5 0.7 0.96
 -10 -6 4 0.87 0.58
 10 -6 -4 0.23 0.74
 10 -6 -4 0.88 0.61
 10 -6 -4 1.13 0.91
 10 -6 -3 12.76 1
 10 -6 -3 14.05 1.2
 10 -6 -3 13.8 0.96
 -10 -6 2 2 0.6
 10 -6 -2 1.06 0.62
 10 -6 -2 0.68 0.91
 10 6 -1 24.38 2.27
 10 -6 -1 45.7 1.84
 10 -6 0 -0.3 0.56
 10 6 0 -0.6 1.6
 10 6 1 9.24 1.67
 10 -6 1 8.23 0.73
 10 6 2 2.42 1.59
 10 6 3 -0.12 1.56
 10 6 4 -0.32 1.49
 10 6 5 -0.78 1.44
 -11 -1 19 0.86 0.55
 -11 -1 19 1.55 0.93
 11 -1 -19 1.2 1.37
 11 -1 -18 0.11 0.59
 -11 1 18 -0.42 0.99
 -11 -1 18 -0.19 0.61
 -11 -1 18 0.67 1.05
 11 -1 -18 -0.42 1.52
 11 -1 -17 1.04 0.68
 -11 -1 17 1.56 0.92
 -11 -1 17 1.18 1.12
 11 -1 -16 0.49 0.71
 -11 1 16 0.02 0.92
 -11 -1 16 0.94 0.98
 -11 -1 16 -0.02 1.16
 11 -1 -15 0.21 0.79
 -11 1 15 0.77 0.99
 -11 -1 15 0.63 0.98
 -11 -1 15 -0.5 1.24
 11 1 -14 -0.3 0.74
 11 -1 -14 0.08 0.82
 -11 1 14 -0.49 1.01
 -11 -1 14 -0.1 1.01
 -11 -1 14 0.11 1.23
 11 1 -13 0.55 0.75
 11 -1 -13 0.2 0.85
 -11 1 13 0.69 1.06
 -11 -1 13 0.26 1
 -11 -1 13 0.66 1.28
 11 1 -12 0.38 0.76
 11 -1 -12 0.12 0.9
 -11 -1 12 0.43 1.07
 -11 -1 12 -0.18 1.25
 -11 1 12 -0.42 1.24
 11 1 -11 2.75 0.87
 11 -1 -11 3.03 0.95
 11 1 -11 0.78 2.32
 -11 -1 11 1.74 1.3
 -11 1 11 1.87 1.27
 11 1 -10 0.68 0.83
 11 -1 -10 -0.85 0.89
 11 1 -10 0.85 2.39
 -11 -1 10 0.55 1.26
 -11 1 10 0.81 1.26
 11 1 -9 1.02 0.86
 11 -1 -9 -0.37 0.9
 11 1 -9 -2.71 2.42
 -11 -1 9 0.3 1.24
 -11 1 9 0.69 1.27
 11 1 -8 -0.12 0.86
 11 -1 -8 1.2 0.91
 11 1 -8 0.97 2.42
 -11 -1 8 1.01 1.26
 -11 1 8 0.11 1.27
 11 1 -7 -0.12 0.9
 11 1 -7 -1.94 2.41
 -11 -1 7 1.46 1.27
 -11 1 7 0.18 1.26
 11 1 -6 -0.29 0.88
 11 -1 -6 0.47 0.76
 11 -1 -6 0.98 0.93
 11 1 -6 0.11 0.78
 11 1 -6 0.01 2.39
 -11 -1 6 0.63 1.19
 -11 1 6 0.85 1.26
 -11 -1 6 0.19 0.55
 11 1 -5 0.4 0.89
 11 -1 -5 0.72 0.72
 11 1 -5 0.34 0.79
 11 -1 -5 0.69 0.88
 11 -1 -5 -0.7 0.75
 -11 -1 5 -0.02 1.22
 -11 1 5 -0.15 1.28
 -11 -1 5 -0.16 0.54
 11 1 -5 -0.02 1.59
 11 -1 -4 4.24 0.98
 11 -1 -4 4.94 0.87
 11 1 -4 6.5 0.92
 11 -1 -4 5.35 1.03
 11 -1 -4 5.23 0.94
 -11 1 4 5.29 1.33
 -11 -1 4 5.9 1.3
 -11 -1 4 3.8 0.69
 11 1 -4 5.6 1.69
 11 -1 -3 0.15 0.89
 11 -1 -3 0.31 0.73
 11 1 -3 -0.13 0.8
 11 -1 -3 0.02 0.9
 11 -1 -3 -0.69 0.81
 -11 1 3 -0.11 1.23
 -11 -1 3 0.6 1.26
 -11 -1 3 0.04 0.6
 11 1 -3 -0.45 1.74
 11 -1 -2 24.17 1.53
 11 -1 -2 24.69 1.51
 11 1 -2 23.4 1.44
 11 -1 -2 22.31 1.54
 11 1 -2 26.02 2.17
 -11 -1 2 25.71 1.72
 -11 -1 2 21.27 1.37
 11 -1 -2 22.84 1.45
 11 -1 -1 51.33 2.46
 11 1 -1 52.52 2.45
 11 -1 -1 51.43 2.52
 11 1 -1 58.65 2.96
 -11 1 1 48.06 2.56
 -11 -1 1 56.29 2.61
 -11 -1 1 49.27 2.39
 11 -1 -1 51.75 2.44
 11 -1 0 42.35 2.12
 11 -1 0 44.04 2.18
 11 1 0 47.66 2.78
 -11 1 0 37.59 2.21
 -11 -1 0 39.63 2.28
 -11 -1 0 38.37 2.03
 11 -1 0 40.92 2.07
 11 -1 1 25.55 1.54
 -11 1 -1 23.1 1.7
 -11 -1 -1 22.79 1.78
 -11 -1 -1 24.37 1.5
 11 -1 1 26.8 1.55
 11 -1 2 0.52 0.8
 -11 1 -2 -0.19 1.2
 -11 -1 -2 1.21 1.16
 -11 -1 -2 1.06 0.75
 11 1 2 1.36 2.1
 11 -1 2 0.53 0.83
 11 -1 3 0.5 0.8
 -11 1 -3 0.35 1.2
 -11 -1 -3 -0.26 1.13
 11 1 3 -0.4 2.15
 11 -1 3 2.06 2.06
 11 -1 3 0.56 1.43
 11 -1 3 1.53 0.84
 11 -1 4 1.79 0.83
 -11 -1 -4 2.46 1.18
 11 1 4 2.55 2.18
 11 -1 4 3.64 2.02
 11 -1 4 1.13 1.4
 11 1 4 1.8 1.38
 11 -1 5 0.55 0.78
 -11 -1 -5 0.86 1.17
 11 1 5 0.18 2.18
 11 -1 5 1.98 1.93
 11 -1 5 1.38 1.39
 11 1 5 0.75 1.35
 11 -1 6 0.73 0.78
 -11 -1 -6 1.53 1.18
 11 -1 6 0.51 1.91
 11 -1 6 0.81 1.43
 11 1 6 1.9 1.38
 11 -1 7 0.41 0.78
 -11 -1 -7 0.19 1.16
 11 -1 7 0.02 1.79
 11 1 7 0.88 1.31
 11 -1 7 -0.28 1.36
 11 1 7 -0.67 1.35
 11 -1 8 1.16 0.73
 11 1 8 1.3 1.95
 11 -1 8 1.47 1.71
 11 1 8 1.33 1.32
 11 -1 8 2.22 1.45
 11 1 8 1.27 1.33
 11 -1 9 1.19 0.74
 11 1 9 0.51 1.86
 11 -1 9 0.73 1.6
 11 1 9 1.34 1.31
 11 -1 9 1.28 1.44
 11 1 9 0.36 1.32
 11 -1 10 0.45 0.67
 -11 -1 -10 -0.48 1.11
 11 1 10 0.28 1.75
 11 -1 10 1.18 1.43
 11 1 10 -0.07 1.26
 11 -1 10 0.24 1.32
 11 1 10 -1.07 1.37
 11 -1 11 -0.34 0.66
 -11 -1 -11 0.14 1.1
 11 1 11 0.36 1.59
 11 1 11 0.3 1.22
 11 -1 11 1.47 1.29
 11 1 11 -1.52 1.32
 -11 -1 -12 0.24 1.06
 -11 -1 -12 0.02 0.55
 11 1 12 -0.66 1.4
 11 1 12 0.06 1.17
 11 -1 12 -0.48 1.25
 11 1 12 0.52 1.26
 -11 -1 -13 -0.74 1
 -11 -1 -13 0.41 0.47
 11 1 13 -0.02 1.19
 11 1 13 0.05 1.11
 11 -1 13 1.49 1.19
 11 1 13 0.81 1.16
 -11 -1 -14 -0.17 0.91
 -11 -1 -14 0.11 0.42
 11 -1 14 -0.31 1.12
 11 1 14 0.61 1.07
 -11 -1 -15 -0.11 0.81
 11 -1 15 1.12 1.01
 11 1 15 0.89 0.98
 -11 3 17 12.08 1.08
 -11 -3 17 11.82 1.09
 11 -3 -16 2.98 0.66
 -11 3 16 3.19 0.98
 -11 -3 16 4.41 1.03
 -11 -3 16 2.53 0.59
 11 -3 -15 8.53 0.87
 -11 -3 15 10.18 0.86
 -11 -3 15 12.85 1.22
 11 -3 -15 11.13 1.67
 11 -3 -14 0.71 0.7
 11 3 -14 0.5 1.96
 -11 -3 14 0.26 1.14
 -11 -3 14 0.57 0.62
 11 -3 -14 1.16 1.68
 11 -3 -13 -0.33 0.72
 -11 -3 13 0.67 0.96
 11 3 -13 3.82 2.08
 11 -3 -13 -0.28 0.68
 -11 -3 13 -0.64 1.17
 11 -3 -13 0.73 1.79
 11 -3 -12 -0.46 0.76
 -11 -3 12 0.76 1.01
 11 3 -12 -0.27 2.16
 11 -3 -12 0.43 0.68
 -11 -3 12 -0.12 1.23
 11 -3 -12 0.58 1.81
 11 -3 -11 0.3 0.82
 -11 -3 11 0.73 1.02
 11 3 -11 -1.38 2.2
 11 -3 -11 0.94 0.75
 -11 -3 11 -0.07 1.24
 11 -3 -11 0.38 1.88
 11 -3 -10 1.36 0.84
 -11 -3 10 0.81 1.04
 11 -3 -10 0.76 0.79
 11 3 -10 1.9 2.24
 -11 -3 10 1.51 1.25
 11 -3 -10 0.4 1.95
 11 -3 -9 0.07 0.79
 -11 -3 9 0.88 1.04
 11 -3 -9 0.96 0.81
 11 3 -9 1.98 2.28
 -11 -3 9 0.72 1.27
 11 -3 -9 0.99 1.96
 11 -3 -8 5.26 0.92
 -11 -3 8 6.42 1.15
 11 -3 -8 5.53 1
 11 3 -8 10.67 2.36
 -11 -3 8 6.16 1.34
 11 -3 -8 5.31 1.99
 11 -3 -7 0.19 0.8
 -11 -3 7 -0.39 1.05
 11 -3 -7 0.41 0.83
 11 3 -7 -1.1 2.33
 -11 -3 7 0.59 1.25
 11 -3 -7 0.38 1.91
 11 -3 -6 24.29 1.51
 -11 -3 6 25.8 1.6
 11 3 -6 25.42 2.62
 -11 -3 6 27.92 1.8
 11 -3 -6 25.14 1.58
 11 -3 -6 23.83 2.26
 11 3 -5 -0.62 0.77
 11 -3 -5 -0.39 0.82
 -11 -3 5 -0.95 1.07
 11 -3 -5 0.65 0.88
 11 -3 -5 -0.04 0.79
 11 3 -5 -2.89 2.34
 -11 -3 5 0.08 1.26
 11 -3 -4 1.24 0.78
 -11 -3 4 0.65 1.06
 11 -3 -4 1.06 0.88
 11 -3 -4 0.95 0.85
 -11 -3 4 0.51 1.32
 11 -3 -3 0.44 0.77
 11 -3 -3 -0.2 0.86
 11 -3 -3 -0.32 0.92
 11 -3 -3 0.57 0.79
 -11 -3 3 -0.2 1.33
 11 3 -3 -2.33 2.06
 11 -3 -2 1.08 0.77
 11 -3 -2 0.85 0.87
 11 -3 -2 1.21 0.9
 11 -3 -2 0.11 0.79
 -11 -3 2 1.01 1.24
 11 3 -2 0.24 2.03
 11 -3 -1 0.16 0.72
 11 -3 -1 0.34 0.86
 11 -3 -1 -0.04 0.91
 11 -3 -1 -0.51 0.83
 -11 -3 1 -0.06 1.26
 11 3 -1 0.31 1.57
 -11 -3 1 0.25 0.66
 11 3 -1 2.3 2.03
 11 -3 0 1.01 0.93
 11 -3 0 0.35 0.87
 11 -3 0 1.69 0.82
 -11 -3 0 1.2 1.27
 11 3 0 0.49 1.66
 -11 -3 0 0.08 0.69
 11 3 0 0.57 1.96
 11 -3 1 -0.3 0.89
 11 -3 1 -0.68 0.87
 -11 -3 -1 1.56 1.27
 11 3 1 0.81 1.72
 -11 -3 -1 1.33 0.72
 11 3 1 2 1.96
 11 -3 2 1.69 0.9
 11 -3 2 1.62 0.88
 11 3 2 0.28 1.74
 11 3 2 3.41 1.98
 11 -3 3 6.77 1.06
 11 -3 3 7.38 0.97
 11 3 3 6.18 1.87
 11 -3 4 2.02 0.9
 11 -3 4 1.29 0.84
 11 -3 4 0.82 0.84
 -11 -3 -4 2.02 1.15
 11 3 4 3.19 1.88
 -11 -3 -4 1.98 0.7
 11 -3 5 7.87 1.04
 11 -3 5 7.44 0.99
 11 -3 5 8.24 1.01
 -11 -3 -5 7.57 1.27
 11 3 5 8 1.91
 -11 -3 -5 6.01 0.84
 11 -3 6 0.38 0.81
 11 -3 6 -0.02 0.78
 -11 -3 -6 0.25 1.12
 11 3 6 0.25 1.86
 -11 -3 -6 -0.06 0.63
 11 3 6 -1.6 2.04
 11 3 7 0.32 0.75
 11 -3 7 1.5 0.8
 11 -3 7 0.62 0.8
 -11 -3 -7 0.21 1.06
 11 3 7 1.39 1.81
 -11 -3 -7 0.07 0.57
 11 3 7 -0.15 2.03
 11 3 8 0.82 0.73
 11 -3 8 -0.86 0.77
 11 -3 8 0.25 0.78
 -11 -3 -8 0.22 1.04
 -11 -3 -8 0.32 0.62
 11 3 8 0.42 1.72
 -11 -3 -8 0.29 0.56
 11 3 9 -0.15 0.68
 11 -3 9 -0.22 0.74
 11 -3 9 0.58 0.7
 11 -3 9 -0.02 0.73
 -11 -3 -9 0.92 1.01
 -11 -3 -9 0.52 0.61
 11 3 9 -0.36 1.61
 -11 -3 -9 0.61 0.52
 11 3 9 0.42 1.91
 11 3 10 0.05 0.64
 11 -3 10 0.05 0.73
 11 -3 10 0.67 0.63
 11 -3 10 -0.03 0.7
 -11 -3 -10 -0.23 0.96
 -11 -3 -10 -0.19 0.46
 11 3 11 0.55 0.62
 11 -3 11 0.35 0.67
 11 -3 11 0.32 0.64
 -11 -3 -11 -0.11 0.88
 -11 -3 -11 -0.16 0.4
 11 -3 12 4.59 0.71
 11 -3 12 5.27 0.69
 11 3 12 3.86 1.22
 11 -3 13 3.26 0.58
 11 -3 13 2.96 0.53
 11 3 13 2.7 1.01
 11 -5 -11 1.83 0.76
 11 5 -11 1.54 1.62
 11 -5 -11 1.61 0.83
 -11 -5 10 1.49 0.47
 11 -5 -10 0.59 0.82
 11 5 -10 -0.38 1.7
 11 -5 -10 0.98 0.61
 11 -5 -10 0.44 0.92
 11 -5 -9 2.09 1.46
 -11 -5 9 3.17 0.54
 11 5 -9 2.01 1.75
 11 -5 -9 2.11 0.68
 11 -5 -9 3.15 0.99
 -11 -5 8 -0.31 0.5
 11 -5 -8 0.36 0.88
 11 5 -8 0.63 1.79
 11 -5 -8 -0.01 0.64
 11 -5 -8 -0.1 0.96
 -11 -5 7 0.27 0.53
 11 -5 -7 0.15 0.92
 -11 -5 6 0.08 0.55
 11 -5 -6 -0.28 0.95
 11 -5 -6 0.78 1.01
 -11 -5 5 0.13 0.58
 11 -5 -5 1.49 0.94
 11 -5 -5 0.54 1.05
 -11 -5 4 0.24 0.55
 11 -5 -4 0.11 0.9
 11 -5 -4 0.71 0.71
 11 -5 -4 0.93 1.04
 -11 -5 3 1.19 0.62
 11 -5 -3 0.91 0.72
 11 -5 -3 1.44 0.87
 11 -5 -3 0.27 1.01
 11 -5 -2 0.7 0.72
 11 -5 -2 -0.66 0.81
 11 5 -2 -1.03 1.78
 11 -5 -2 0.11 1.04
 11 -5 -1 7.98 0.75
 11 5 -1 6.62 1.83
 11 -5 -1 7.98 1.14
 11 -5 -1 8.55 0.89
 11 -5 0 1.06 0.74
 11 -5 0 2.04 0.6
 11 -5 0 0.96 1
 11 -5 1 1.64 0.71
 11 -5 1 1.33 0.61
 11 -5 2 0.22 0.66
 11 -5 2 0.34 0.58
 11 5 2 0.89 1.76
 11 -5 3 0.61 0.65
 11 -5 3 0.12 0.57
 11 5 3 0.75 1.72
 11 -5 4 -0.14 0.63
 11 -5 4 0.6 0.57
 11 5 4 -1.21 1.7
 11 -5 5 0.43 0.6
 11 -5 5 0.24 0.54
 11 5 5 1.1 1.03
 11 -5 6 0.14 0.55
 11 -5 6 0.19 0.52
 11 5 6 0.15 1.01
 11 -5 7 0.23 0.46
 11 5 7 -0.52 0.97
 11 5 7 0.87 1.47
 -12 0 18 -0.13 0.48
 12 0 -17 -0.06 0.51
 -12 0 17 -0.06 0.78
 -12 0 17 0.05 0.92
 12 0 -16 0.3 0.6
 -12 0 16 0.86 0.85
 -12 0 16 -0.07 1.01
 12 0 -15 0.04 0.65
 -12 0 15 -0.04 0.92
 -12 0 15 -0.21 1.09
 12 0 -14 0.03 0.74
 -12 0 14 0.6 0.96
 -12 0 14 -0.61 1.15
 12 0 -13 1.29 0.78
 -12 0 13 0.14 1
 -12 0 13 -0.08 1.18
 12 0 -12 1.38 0.84
 -12 0 12 2.53 1.06
 -12 0 12 0.75 1.2
 12 0 -11 0.36 0.83
 -12 0 11 -0.68 1.26
 12 0 -10 0.97 0.88
 -12 0 10 0.06 1.23
 12 0 -9 -0.25 0.89
 -12 0 9 -0.72 1.27
 12 0 -8 -0.15 0.9
 -12 0 8 0.32 1.25
 12 0 -7 -0.53 0.88
 -12 0 7 0.7 1.25
 12 0 -6 0.24 0.93
 12 0 -6 1.15 0.89
 -12 0 6 1.73 1.26
 12 0 -5 0.74 0.96
 12 0 -5 -0.11 0.9
 -12 0 5 -0.14 1.28
 12 0 -4 7.15 1.1
 12 0 -4 7.56 1.05
 -12 0 4 8.15 1.39
 12 0 -3 0.15 0.93
 12 0 -3 0.26 0.93
 -12 0 3 -0.29 1.31
 -12 0 3 1.06 0.6
 12 0 -2 126.28 4.85
 12 0 -2 134.34 5.16
 -12 0 2 117.7 4.88
 -12 0 2 122.81 4.93
 12 0 -1 -0.5 0.89
 12 0 -1 -0.31 0.78
 -12 0 1 0.53 1.21
 -12 0 1 0.02 0.64
 12 0 -1 1.01 2.09
 12 0 0 118.57 4.82
 12 0 0 121.45 4.89
 -12 0 0 116.68 4.94
 12 0 1 0.57 0.92
 12 0 1 -1.05 0.76
 -12 0 -1 -0.24 1.21
 12 0 1 1.31 2.13
 12 0 2 0.79 0.77
 12 0 2 2.03 0.74
 -12 0 -2 1.65 1.19
 12 0 2 2.04 2.15
 12 0 3 -0.21 0.7
 -12 0 -3 -0.16 1.14
 12 0 3 -1.63 2.09
 12 0 3 -0.6 0.72
 12 0 4 1.12 0.71
 -12 0 -4 1.46 1.21
 12 0 4 1.51 0.78
 12 0 5 0.21 0.69
 -12 0 -5 -0.39 1.14
 12 0 5 -0.09 0.77
 -12 0 -6 0.7 1.18
 12 0 6 1.2 1.86
 -12 0 -7 -0.02 1.14
 12 0 7 -0.11 1.77
 -12 0 -8 2.38 1.16
 12 0 8 2.15 1.71
 -12 0 -9 0.02 1.09
 12 0 9 -0.29 1.52
 -12 0 -10 -0.64 1.05
 12 0 10 0.18 1.38
 12 0 10 1.38 1.28
 -12 0 -11 -0.29 1.01
 12 0 11 0.64 1.21
 12 0 11 -0.1 1.18
 -12 0 -12 -0.19 0.95
 12 0 12 0.09 1.1
 -12 0 -13 -0.11 0.4
 12 0 13 -0.16 1.01
 12 -2 -17 5.43 0.61
 12 -2 -16 6.56 0.74
 -12 -2 16 7.32 0.71
 -12 -2 16 8.06 1.07
 12 -2 -16 7.48 1.47
 12 -2 -15 15.22 1.04
 -12 -2 15 16.36 1.32
 12 -2 -15 15.91 1.74
 12 -2 -14 5.63 0.82
 -12 -2 14 6.1 0.98
 -12 -2 14 5.97 1.18
 12 -2 -14 6.39 1.7
 -12 -2 13 -0.42 0.94
 -12 -2 13 0.51 1.16
 12 -2 -13 -0.23 1.72
 -12 2 12 0.17 0.96
 -12 -2 12 0.25 0.99
 -12 -2 12 0.8 1.2
 12 -2 -12 -0.01 1.79
 -12 -2 11 0.11 1.01
 12 2 -11 -0.91 2.21
 -12 -2 11 0.22 1.17
 12 -2 -11 0.32 1.81
 12 2 -10 -0.61 0.74
 12 -2 -10 0.06 0.82
 -12 -2 10 0.23 1.01
 12 2 -10 3.48 2.25
 -12 -2 10 1.11 1.22
 12 -2 -10 0.76 1.86
 12 2 -9 -0.16 0.74
 12 -2 -9 -0.7 0.9
 -12 -2 9 -0.08 1.05
 12 -2 -9 0.36 0.72
 12 2 -9 -1.38 2.29
 12 -2 -9 0.45 1.86
 12 2 -8 0.78 0.79
 12 -2 -8 0.71 0.88
 -12 -2 8 -0.58 1.08
 12 -2 -8 0.92 0.76
 12 2 -8 1.23 2.29
 12 -2 -8 -0.11 1.87
 12 2 -7 3.02 0.84
 12 -2 -7 2.5 0.91
 12 -2 -7 3.35 0.83
 12 2 -6 0.82 0.79
 12 -2 -6 -0.58 0.86
 12 -2 -6 0.33 0.78
 12 2 -5 1.83 0.86
 12 -2 -5 2.84 0.9
 12 -2 -5 2.1 0.8
 12 2 -4 -0.22 0.85
 12 -2 -4 0.77 0.85
 12 -2 -4 0.62 0.79
 12 -2 -3 -0.92 0.83
 12 -2 -3 0.33 0.88
 12 -2 -3 -0.4 0.81
 -12 -2 3 0.33 0.63
 12 2 -3 -0.4 1.55
 12 -2 -2 -0.46 0.85
 12 -2 -2 -0.3 0.88
 12 -2 -2 -0.04 0.82
 -12 -2 2 -0.35 1.25
 -12 -2 2 0.04 0.64
 12 2 -2 0.24 1.64
 12 -2 -1 0.96 0.84
 12 -2 -1 0.71 0.82
 12 -2 -1 0.65 0.81
 -12 -2 1 -0.04 1.28
 -12 -2 1 0.63 0.63
 12 2 -1 1.61 1.69
 12 -2 0 0.4 0.82
 12 -2 0 0.06 0.84
 12 -2 0 0.9 0.98
 12 -2 0 -0.13 0.79
 -12 -2 0 -0.42 1.29
 -12 -2 0 0.51 0.68
 12 2 0 -0.45 1.78
 12 -2 1 0.39 0.79
 12 -2 1 -0.24 0.84
 12 -2 1 0.3 0.87
 12 -2 1 -0.24 0.78
 -12 -2 -1 0.77 1.14
 -12 -2 -1 0.95 0.66
 12 2 1 0.22 1.8
 12 -2 2 -0.73 0.76
 12 -2 2 0.02 0.9
 12 2 2 0.58 0.76
 12 -2 2 0.45 0.89
 12 -2 2 0.78 0.78
 -12 -2 -2 0.31 1.13
 -12 -2 -2 -0.25 0.68
 12 2 2 0.17 1.85
 12 -2 3 1.68 0.77
 12 -2 3 1.89 0.87
 12 2 3 1.68 0.8
 12 -2 3 2.83 0.92
 12 -2 3 1.92 0.85
 -12 -2 -3 1.63 0.72
 12 2 3 3.92 1.94
 12 -2 4 0.91 0.89
 12 -2 4 1 0.85
 12 -2 4 1 0.79
 -12 -2 -4 0.98 0.67
 12 2 4 0.89 1.88
 12 -2 5 4.61 0.92
 12 -2 5 3.84 0.94
 12 -2 5 3.1 0.81
 -12 2 -5 3.15 1.14
 12 2 5 4.54 1.93
 12 -2 6 -0.53 0.87
 12 -2 6 0.69 0.84
 12 -2 6 0.99 0.77
 -12 2 -6 0.74 1.08
 -12 -2 -6 0.93 1.1
 12 2 6 0.46 1.82
 12 -2 7 1.03 0.81
 12 -2 7 0.27 0.83
 12 -2 7 0.06 0.69
 -12 2 -7 -0.05 1.06
 -12 -2 -7 0.7 1.07
 -12 -2 -7 0.41 0.6
 12 2 7 0.65 1.76
 12 -2 8 0.11 0.77
 12 -2 8 0.54 0.78
 12 -2 8 0.67 0.69
 -12 2 -8 0.29 1.06
 -12 -2 -8 0.33 1.07
 -12 -2 -8 0.49 0.56
 12 -2 9 -0.14 0.71
 12 -2 9 0.22 0.72
 12 -2 9 0.19 0.63
 -12 2 -9 -0.31 1.01
 -12 -2 -9 -0.62 1.04
 -12 -2 -9 0.21 0.52
 12 -2 10 -0.4 0.69
 12 -2 10 -0.17 0.67
 12 -2 10 -0.47 0.61
 -12 2 -10 0.09 0.95
 -12 -2 -10 -0.47 0.98
 -12 -2 -10 0.87 0.5
 12 2 10 0.96 1.36
 12 -2 11 0.89 0.64
 12 -2 11 0.07 0.6
 12 -2 11 -0.05 0.52
 -12 2 -11 0.83 0.9
 -12 -2 -11 0.15 0.87
 -12 -2 -11 -0.23 0.41
 12 2 11 -0.95 1.21
 12 -2 12 0.51 0.55
 -12 2 -12 0.23 0.84
 -12 -2 -12 -0.21 0.79
 12 2 12 0.22 0.99
 12 4 -12 -0.82 1.63
 12 -4 -12 0.53 0.84
 12 4 -11 -1.81 1.74
 12 -4 -11 -0.33 0.57
 -12 -4 11 0.84 0.93
 12 -4 -11 -0.5 0.92
 12 -4 -10 0.69 1.44
 12 -4 -10 -0.47 0.55
 12 4 -10 -3.26 1.83
 12 -4 -10 -0.96 0.64
 -12 -4 10 -0.71 0.97
 12 -4 -10 0.07 0.97
 12 4 -9 -0.02 1.84
 12 -4 -9 -0.4 0.64
 -12 -4 9 -0.13 1.01
 12 -4 -8 -0.35 0.69
 12 4 -8 0.13 1.88
 -12 -4 8 0.8 1.04
 12 -4 -7 0.38 0.7
 -12 -4 7 0.17 1.07
 12 -4 -6 1.88 0.76
 -12 -4 6 2.08 1.08
 12 -4 -5 1.45 0.78
 -12 -4 5 2.29 1.1
 12 -4 -4 1.97 0.79
 -12 -4 4 2.36 1.1
 12 -4 -3 0.24 0.74
 -12 -4 3 0.76 1.09
 12 -4 -2 -0.6 0.79
 12 -4 -2 0.12 0.63
 -12 -4 2 0.23 1.09
 12 -4 -1 0.39 0.76
 12 -4 -1 0.33 0.66
 -12 -4 1 0.15 1.07
 12 -4 0 1.05 0.77
 12 -4 0 0.4 0.68
 -12 -4 0 0.7 1.06
 12 4 0 2.66 1.84
 12 -4 1 0.58 0.74
 12 -4 1 0.84 0.68
 12 4 1 -0.68 1.83
 12 -4 2 0.02 0.66
 12 4 2 0.78 1.22
 12 4 2 0.03 1.81
 12 -4 3 0.37 0.66
 12 4 3 -0.08 1.79
 12 -4 4 3.54 0.76
 12 -4 4 2.58 0.67
 12 4 4 2.94 1.25
 12 -4 5 2.27 0.69
 12 -4 5 1.83 0.63
 12 4 5 1.6 1.24
 12 -4 6 -0.08 0.6
 12 4 6 -0.71 1.18
 12 -4 7 -0.09 0.57
 12 4 7 0.01 1.1
 12 -4 8 0.03 0.51
 12 4 8 -0.06 1.01
 13 -1 -15 -0.07 0.55
 -13 -1 15 0.48 0.77
 -13 -1 15 -0.45 0.93
 13 -1 -14 -0.01 0.6
 -13 1 14 0.19 0.81
 -13 -1 14 0.62 0.83
 -13 -1 14 0.22 1
 13 -1 -14 0.71 1.45
 13 1 -13 -0.48 0.61
 13 -1 -13 0.36 0.66
 -13 1 13 -0.04 0.87
 -13 -1 13 -0.05 0.89
 -13 -1 13 0.51 1.06
 13 -1 -13 0.31 1.53
 13 1 -12 1.19 0.7
 13 -1 -12 1.57 0.74
 -13 1 12 1.68 0.93
 -13 -1 12 2.71 1.15
 13 -1 -12 0.29 1.62
 13 1 -11 4.89 0.79
 13 -1 -11 4.14 0.83
 -13 -1 11 5.86 1.22
 13 -1 -11 2.73 1.69
 13 1 -10 3.57 0.79
 13 -1 -10 3.23 0.84
 -13 -1 10 4.5 1.21
 13 -1 -10 1.97 1.71
 13 1 -9 0.45 0.79
 13 -1 -9 -1.23 0.84
 -13 -1 9 1.21 1.21
 13 1 -8 -0.39 0.77
 -13 -1 8 0.04 1.21
 -13 1 8 -0.72 1.17
 13 1 -7 1.34 0.84
 -13 -1 7 1.65 1.2
 -13 1 7 1.39 1.17
 13 1 -6 -0.61 0.85
 -13 -1 6 1.01 1.2
 -13 1 6 -0.82 1.21
 13 1 -5 0.23 0.82
 13 -1 -5 0.24 0.82
 -13 -1 5 0.08 1.27
 -13 1 5 1.1 1.22
 13 1 -4 -0.75 0.89
 13 -1 -4 0.81 0.89
 13 -1 -4 0.08 0.95
 13 1 -4 0.37 0.77
 -13 -1 4 -0.86 1.26
 -13 1 4 0.54 1.23
 -13 -1 4 0.19 0.55
 13 1 -3 -0.82 0.92
 13 -1 -3 0.71 0.87
 13 1 -3 0.32 0.77
 13 -1 -3 0.48 0.94
 -13 -1 3 1.1 1.24
 -13 1 3 0.24 1.25
 -13 -1 3 0.05 0.56
 13 1 -2 0.52 0.89
 13 -1 -2 -0.23 0.9
 13 -1 -2 -0.41 0.75
 13 1 -2 -0.38 0.8
 13 -1 -2 0.71 0.9
 -13 -1 2 -0.02 1.21
 -13 1 2 -0.37 1.25
 -13 -1 2 0.21 0.57
 13 1 -2 0.09 1.66
 13 -1 -1 1.18 0.86
 13 -1 -1 1.66 0.76
 13 1 -1 1.63 0.8
 13 -1 -1 1.52 0.9
 13 -1 -1 1.22 0.81
 -13 1 1 0.61 1.23
 -13 -1 1 0.37 1.23
 -13 -1 1 1.49 0.62
 13 1 -1 1.43 1.72
 13 -1 0 0.34 0.8
 13 -1 0 0.45 0.75
 13 1 0 -0.05 0.8
 13 -1 0 -0.48 0.93
 13 -1 0 -0.28 0.78
 -13 1 0 0.55 1.24
 -13 -1 0 0.31 1.2
 -13 1 0 -0.4 0.57
 -13 -1 0 0.02 0.61
 13 1 0 0.5 1.74
 13 -1 1 0.22 0.83
 13 -1 1 0.41 0.74
 13 1 1 0.29 0.81
 13 -1 1 -0.23 0.82
 13 -1 1 0.92 0.78
 -13 1 -1 0.29 1.08
 -13 -1 -1 0.02 1.12
 -13 1 -1 0.29 0.58
 -13 -1 -1 -0.45 0.61
 13 1 1 0.39 1.78
 13 -1 2 0.45 0.82
 13 -1 2 0.2 0.74
 13 1 2 0.77 0.82
 13 -1 2 0.14 0.9
 13 -1 2 -0.53 0.75
 -13 1 -2 -0.07 1.08
 -13 -1 -2 0.17 1.1
 -13 -1 -2 -0.09 0.67
 13 1 2 0.21 1.8
 13 -1 3 -0.03 0.78
 13 -1 3 0.09 0.72
 13 1 3 0.46 0.78
 13 -1 3 0.81 0.89
 13 -1 3 0.37 0.71
 -13 1 -3 -0.69 1.08
 -13 -1 -3 -0.11 1.09
 -13 -1 -3 1.03 0.65
 13 1 3 0.05 1.79
 13 -1 4 -0.13 0.75
 13 -1 4 0.3 0.72
 13 1 4 0.42 0.77
 13 -1 4 0.48 0.84
 13 -1 4 -0.19 0.69
 -13 1 -4 -0.08 1.06
 -13 -1 -4 1.33 1.11
 -13 -1 -4 0.09 0.62
 13 1 4 -0.29 1.76
 13 -1 5 -0.09 0.73
 13 -1 5 0.14 0.7
 13 1 5 -0.03 0.76
 13 -1 5 0.59 0.84
 13 -1 5 0.41 0.66
 -13 1 -5 -0.59 1.06
 -13 -1 -5 -0.12 1.05
 -13 -1 -5 -1.03 0.62
 13 1 5 -0.3 1.66
 13 -1 6 -0.38 0.7
 13 -1 6 -0.55 0.71
 13 -1 6 -0.62 0.63
 -13 1 -6 1.16 1.04
 -13 -1 -6 0.45 1.05
 -13 -1 -6 0.37 0.59
 13 -1 7 0.77 0.69
 13 -1 7 -0.37 0.59
 -13 1 -7 0.55 1.02
 -13 -1 -7 0.51 1.03
 -13 -1 -7 0.51 0.57
 13 -1 8 2.94 0.68
 -13 1 -8 1.91 1.02
 -13 -1 -8 3.25 1.01
 13 1 8 1.54 1.38
 13 -1 9 3.52 0.69
 13 -1 9 3.96 0.72
 -13 1 -9 4.41 0.99
 -13 -1 -9 0.91 0.52
 13 1 9 2.79 1.27
 13 -1 10 1.95 0.59
 13 -1 10 2.32 0.63
 -13 1 -10 1.61 0.92
 -13 -1 -10 0.5 0.45
 13 1 10 1.1 1.07
 -13 -1 -11 1.11 0.79
 -13 1 -11 -0.05 0.43
 13 -3 -12 1.95 0.58
 -13 -3 12 3.67 0.94
 13 -3 -11 0.07 0.57
 -13 -3 11 0.21 0.96
 13 -3 -10 0.48 0.6
 -13 -3 10 0.66 0.8
 13 -3 -10 1.22 0.58
 -13 -3 10 1.03 1.02
 13 -3 -9 0.21 0.63
 -13 -3 9 0.18 0.82
 13 -3 -9 0.7 0.6
 -13 -3 9 -1.09 1.07
 13 -3 -8 0.8 0.66
 -13 -3 8 0.21 0.83
 13 -3 -8 0.73 0.65
 -13 -3 8 1.72 1.08
 13 -3 -7 2.5 0.69
 13 -3 -7 1.56 0.68
 -13 -3 7 2 1.08
 13 -3 -6 0.05 0.67
 13 -3 -6 -0.16 0.68
 -13 -3 6 0.12 1.09
 13 -3 -5 1.14 0.67
 13 -3 -5 0.13 0.7
 -13 -3 5 0.63 1.1
 13 3 -4 0.36 0.68
 13 -3 -4 0.09 0.65
 13 -3 -4 0.61 0.7
 -13 -3 4 0.46 1.13
 13 3 -3 1.18 0.69
 13 -3 -3 0.1 0.75
 -13 -3 3 0.03 1.13
 13 3 -2 -0.17 0.7
 13 -3 -2 0.3 0.71
 -13 -3 2 -0.52 1.13
 13 -3 -1 0.53 0.75
 -13 -3 1 -0.51 1.12
 13 -3 0 0.95 0.74
 -13 -3 0 0.86 1.1
 13 3 0 0.01 1.23
 13 -3 1 0.9 0.74
 13 -3 1 0.49 0.73
 -13 -3 -1 0.45 1.09
 13 -3 2 3.33 0.77
 13 -3 2 3.81 0.79
 13 -3 2 2.81 0.74
 -13 -3 -2 3.17 1.1
 13 3 2 2.53 1.33
 13 -3 3 1.27 0.74
 13 -3 3 0.66 0.7
 13 -3 3 1.46 0.66
 -13 -3 -3 2.23 1.05
 13 3 3 -0.35 1.32
 13 -3 4 9.1 0.88
 13 -3 4 10.54 0.9
 -13 -3 -4 12.02 1.17
 13 -3 4 11.09 0.94
 13 -3 5 -0.07 0.66
 13 -3 5 0.5 0.63
 13 -3 5 0.45 0.63
 -13 -3 -5 0.91 0.96
 13 3 5 0.53 1.27
 13 -3 6 1.59 0.64
 13 -3 6 2.06 0.6
 13 -3 6 0.95 0.59
 -13 -3 -6 1.6 0.91
 13 3 6 1.27 1.22
 13 -3 7 0.31 0.57
 13 -3 7 0.13 0.51
 13 3 7 -0.42 1.14
 13 -3 8 0.41 0.51
 13 -3 8 0.05 0.44
 13 3 8 0.37 1
 -14 0 13 0.34 0.75
 14 0 -12 10.24 0.82
 -14 0 12 10.42 0.99
 -14 0 12 12.18 1.09
 14 0 -11 -0.34 0.63
 -14 0 11 -0.21 0.86
 -14 0 11 0.2 0.99
 14 0 -10 12.77 0.97
 -14 0 10 13.12 1.16
 -14 0 10 14.27 1.24
 14 0 -9 0.73 0.69
 -14 0 9 0.2 1.06
 14 0 -8 -0.02 0.72
 -14 0 8 1.1 1.1
 14 0 -7 -0.26 0.77
 -14 0 7 0.1 1.11
 14 0 -6 0.73 0.74
 -14 0 6 0.28 1.1
 14 0 -5 -1.19 0.81
 -14 0 5 0.02 1.16
 14 0 -4 0.19 0.78
 -14 0 4 0.3 1.15
 14 0 -3 -0.5 0.79
 -14 0 3 0.76 1.15
 14 0 -2 1.9 0.79
 -14 0 2 1.25 1.18
 14 0 -1 0.03 0.78
 14 0 -1 0.14 0.78
 -14 0 1 0.28 1.13
 -14 0 1 -0.5 0.49
 14 0 0 0.39 0.75
 14 0 0 0.93 0.8
 -14 0 0 0.37 1.16
 -14 0 0 0.46 0.53
 14 0 1 -0.89 0.74
 14 0 1 -0.23 0.76
 -14 0 -1 1.36 1.14
 -14 0 -1 -0.09 0.5
 14 0 2 0.6 0.72
 14 0 2 0.05 0.74
 -14 0 -2 0.67 1.11
 -14 0 -2 0.09 0.51
 14 0 3 0.11 0.71
 14 0 3 0.19 0.73
 -14 0 -3 -0.06 0.97
 -14 0 -3 -0.19 1.09
 -14 0 -3 -0.06 0.51
 14 0 4 0.66 0.69
 14 0 4 0.36 0.69
 -14 0 -4 0.47 0.96
 -14 0 -4 -0.17 0.51
 14 0 5 0.91 0.64
 14 0 5 0.24 0.67
 -14 0 -5 -0.11 0.94
 -14 0 -5 0.12 0.51
 14 0 6 -0.14 0.62
 14 0 6 0.36 0.65
 -14 0 -6 -0.62 0.9
 -14 0 -6 0.41 0.48
 14 0 7 -0.28 0.55
 14 0 7 -0.07 0.58
 -14 0 -7 -0.15 0.87
 -14 0 -7 0.35 0.44
 14 0 8 6.22 0.65
 -14 0 -8 5.24 0.88
 14 -2 -11 0.51 0.52
 -14 -2 11 0.5 0.91
 14 -2 -10 -0.25 0.58
 -14 2 10 0.1 0.76
 -14 -2 10 0.55 0.76
 -14 -2 10 -0.32 0.95
 14 -2 -9 0.45 0.6
 -14 -2 9 0.31 0.8
 -14 -2 9 0.74 0.99
 14 2 -8 -0.54 0.59
 14 -2 -8 0.38 0.64
 -14 -2 8 1.16 0.83
 -14 -2 8 1.08 1.03
 14 2 -7 1.09 0.62
 14 -2 -7 0.98 0.66
 -14 -2 7 1.5 0.87
 14 2 -6 3.06 0.66
 14 -2 -6 2.96 0.72
 -14 -2 6 4.15 0.91
 14 2 -5 3.65 0.72
 14 -2 -5 4.24 0.75
 -14 -2 5 4.52 0.92
 14 2 -4 1.53 0.7
 14 -2 -4 1.28 0.69
 -14 -2 4 1.23 0.87
 14 -2 -4 0.68 0.61
 14 2 -3 1.06 0.69
 14 -2 -3 0.52 0.68
 14 -2 -3 1.07 0.63
 14 2 -2 0.23 0.67
 14 -2 -2 0.78 0.65
 14 -2 -2 0.45 0.61
 14 2 -1 -0.15 0.72
 14 -2 -1 0.36 0.65
 14 -2 -1 0.37 0.62
 -14 -2 1 1.04 1.07
 14 2 0 -0.15 0.68
 14 -2 0 0.13 0.61
 14 -2 0 -0.41 0.64
 14 -2 0 0.25 0.74
 -14 -2 0 -0.33 1.06
 14 -2 1 -0.07 0.63
 14 -2 1 0.27 0.69
 -14 -2 -1 -0.32 1.04
 14 2 1 -0.01 1.26
 14 -2 2 0.24 0.62
 14 -2 2 -0.16 0.69
 14 -2 2 0.41 0.6
 -14 -2 -2 0.31 1.01
 -14 -2 -2 0.33 0.47
 14 2 2 -0.1 1.27
 14 -2 3 0.11 0.6
 14 -2 3 0.53 0.67
 14 -2 3 0.22 0.6
 -14 -2 -3 0.64 1
 -14 -2 -3 0.35 0.47
 14 2 3 0.29 1.23
 14 -2 4 0.06 0.58
 14 -2 4 -0.14 0.64
 14 -2 4 0.24 0.53
 -14 -2 -4 0.62 0.96
 -14 -2 -4 -0.15 0.44
 14 2 4 -0.57 1.21
 14 -2 5 0.47 0.56
 14 -2 5 -0.05 0.59
 14 -2 5 0.78 0.51
 -14 -2 -5 0.97 0.92
 -14 -2 -5 0.32 0.43
 14 2 5 0.07 1.14
 14 -2 6 0.54 0.52
 14 -2 6 0.55 0.57
 -14 -2 -6 1.93 0.86
 14 2 6 -0.34 1.05
 -15 -1 8 -0.4 0.87
 15 1 -7 0.44 0.54
 15 -1 -7 0.33 0.54
 -15 -1 7 -0.14 0.75
 -15 -1 7 0.05 0.9
 15 1 -6 0.88 0.57
 15 -1 -6 0.07 0.57
 -15 -1 6 0.61 0.76
 -15 -1 6 1.24 0.94
 15 1 -5 0.08 0.57
 15 -1 -5 0.1 0.58
 -15 -1 5 0.63 0.78
 -15 -1 5 -0.49 0.98
 15 1 -4 -0.6 0.59
 15 -1 -4 -0.27 0.59
 -15 -1 4 -0.5 0.97
 15 1 -3 0.28 0.61
 15 -1 -3 1.16 0.6
 -15 -1 3 1.58 0.98
 15 1 -2 7.33 0.76
 15 -1 -2 6.91 0.73
 -15 -1 2 8.45 1.07
 15 1 -1 9.38 0.84
 15 -1 -1 9.8 0.8
 15 -1 0 7.25 0.69
 15 1 0 6.94 0.75
 -15 -1 0 7.66 1.04
 15 -1 1 3.3 0.65
 -15 -1 -1 3.08 0.96
 15 -1 2 0.57 0.56
 -15 -1 -2 1.03 0.9
 15 1 3 0.54 0.5
 15 -1 3 0.16 0.54
 -15 -1 -3 -0.44 0.87

_iucr_refine_fcf_details
;
data_DK3
_computing_structure_refinement   'olex2.refine (Bourhis et al., 2015)'
_shelx_refln_list_code            4
loop_
  _space_group_symop_id
  _space_group_symop_operation_xyz
  1  x,y,z
  2  -x,y,-z+1/2
  3  -x,-y,-z
  4  x,-y,z-1/2
  5  x+1/2,y+1/2,z
  6  -x+1/2,y+1/2,-z+1/2
  7  -x+1/2,-y+1/2,-z
  8  x+1/2,-y+1/2,z-1/2

_space_group_crystal_system       monoclinic
_space_group_IT_number            15
_space_group_name_H-M_alt         'C 1 2/c 1'
_space_group_name_Hall            '-C 2yc'
_symmetry_space_group_name_H-M    'C 1 2/c 1'
_symmetry_space_group_name_Hall   '-C 2yc'
_symmetry_Int_Tables_number       15
_cell_length_a                    12.8983(16)
_cell_length_b                    7.0522(7)
_cell_length_c                    21.046(2)
_cell_angle_alpha                 90
_cell_angle_beta                  96.340(10)
_cell_angle_gamma                 90
_cell_volume                      1902.6(4)
loop_
  _refln_index_h
  _refln_index_k
  _refln_index_l
  _refln_F_squared_calc
  _refln_F_squared_meas
  _refln_F_squared_sigma
  _refln_F_squared_weight
  _refln_observed_status
-15 1 1 327.028 304.057 18.339 34.359 o
-15 1 2 288.425 234.746 14.954 49.813 o
-15 1 3 28.896 29.302 12.411 139.800 o
-15 1 4 0.078 -14.251 12.132 148.643 o
-15 1 5 1.083 3.398 10.711 190.701 o
-15 1 6 13.302 20.367 10.541 195.633 o
-15 1 7 2.026 6.667 10.076 215.432 o
-15 1 8 1.285 -12.663 27.541 28.845 o
-14 0 2 51.023 51.896 20.781 49.769 o
-14 0 4 10.299 7.422 20.435 52.362 o
-14 0 6 13.620 17.380 19.437 57.814 o
-14 0 8 28.554 13.393 19.071 59.891 o
-14 0 10 429.849 421.086 20.199 23.155 o
-14 0 12 390.136 343.276 17.637 30.209 o
-14 2 1 9.976 11.069 11.356 169.244 o
-14 2 2 17.602 15.461 11.731 158.020 o
-14 2 3 32.643 28.090 12.155 145.275 o
-14 2 4 27.090 36.700 11.089 174.105 o
-14 2 5 131.882 129.999 14.318 85.546 o
-14 2 6 115.669 105.595 13.582 98.717 o
-14 2 7 43.125 36.760 12.695 131.715 o
-14 2 8 10.888 12.379 11.402 167.801 o
-14 2 9 8.495 15.196 13.673 116.824 o
-14 2 10 3.558 0.511 11.526 164.667 o
-14 2 11 6.467 16.030 14.293 106.963 o
-13 1 1 34.726 41.017 9.268 243.384 o
-13 1 2 1.499 0.658 9.202 258.391 o
-13 1 3 2.427 8.000 10.112 213.851 o
-13 1 4 0.658 2.896 10.053 216.486 o
-13 1 5 13.532 12.032 15.326 92.947 o
-13 1 6 7.427 -6.180 19.050 60.280 o
-13 1 7 30.104 45.731 18.777 61.413 o
-13 1 8 1.816 -11.567 17.979 67.684 o
-13 1 9 14.707 1.016 21.325 48.083 o
-13 1 10 124.264 109.865 15.741 75.493 o
-13 1 11 150.620 147.481 17.729 57.545 o
-13 1 12 71.410 48.377 12.755 125.282 o
-13 1 13 0.564 1.533 10.621 193.957 o
-13 1 14 4.330 9.147 11.774 157.714 o
-13 1 15 1.583 0.092 12.767 134.238 o
-13 3 1 0.559 3.574 19.728 56.218 o
-13 3 2 0.267 -2.386 14.438 104.965 o
-13 3 3 0.182 16.141 14.663 101.727 o
-13 3 4 6.717 11.576 11.674 160.305 o
-13 3 5 35.797 20.331 14.025 109.693 o
-13 3 6 2.860 -0.413 13.840 114.222 o
-13 3 7 59.389 65.055 13.990 105.811 o
-13 3 8 18.160 25.529 11.990 150.892 o
-13 3 9 11.421 4.102 11.440 166.891 o
-13 3 10 28.588 26.684 11.005 177.277 o
-13 3 11 7.663 3.867 15.515 90.843 o
-13 3 12 74.004 84.459 27.225 28.831 o
-12 0 2 3779.530 3967.710 91.888 0.421 o
-12 0 4 208.456 239.448 21.099 37.324 o
-12 0 6 23.266 30.924 18.131 66.163 o
-12 0 8 2.631 1.480 23.121 40.926 o
-12 0 10 14.539 18.692 22.656 42.562 o
-12 0 12 44.559 49.660 18.272 64.320 o
-12 0 14 2.666 1.311 16.531 80.064 o
-12 0 16 9.412 11.912 13.960 112.089 o
-12 0 18 5.650 -4.115 15.195 94.743 o
-12 2 1 6.529 22.683 11.257 172.098 o
-12 2 2 9.580 -4.877 11.471 166.122 o
-12 2 3 0.008 -5.241 11.795 157.257 o
-12 2 4 4.426 12.526 15.143 95.357 o
-12 2 5 71.608 71.348 15.541 85.267 o
-12 2 6 7.217 6.711 14.763 100.320 o
-12 2 7 86.139 95.324 15.679 81.252 o
-12 2 8 11.213 16.608 12.968 129.715 o
-12 2 9 0.606 -5.100 12.536 139.216 o
-12 2 10 2.675 13.823 13.558 118.956 o
-12 2 11 1.857 0.688 21.243 48.485 o
-12 2 12 8.213 10.026 17.945 67.893 o
-12 2 13 11.972 -1.779 21.280 48.294 o
-12 2 14 173.229 187.361 16.702 58.781 o
-12 2 15 515.098 497.612 23.409 16.676 o
-12 2 16 240.920 228.868 13.955 60.764 o
-12 2 17 211.509 171.896 19.311 44.767 o
-12 4 1 4.994 9.696 14.300 106.923 o
-12 4 2 1.478 -3.006 14.209 108.365 o
-12 4 3 9.153 14.254 19.381 58.192 o
-12 4 4 50.804 67.524 20.313 51.850 o
-12 4 5 51.462 56.935 20.142 52.840 o
-12 4 6 58.581 62.130 19.676 55.022 o
-12 4 7 20.233 9.400 18.544 63.476 o
-12 4 8 0.352 3.562 17.406 72.219 o
-12 4 9 1.729 -7.818 16.420 81.153 o
-12 4 10 0.044 -20.446 12.317 144.224 o
-12 4 11 0.029 -8.877 13.338 122.978 o
-12 4 12 0.436 2.244 23.637 39.159 o
-11 1 1 1543.430 1655.700 30.247 2.643 o
-11 1 2 743.695 747.237 17.352 11.304 o
-11 1 3 0.173 -0.650 9.193 258.917 o
-11 1 4 162.144 162.761 10.422 117.460 o
-11 1 5 4.746 3.948 8.790 282.954 o
-11 1 6 18.952 11.077 9.705 230.366 o
-11 1 7 1.606 3.608 19.422 57.999 o
-11 1 8 3.667 18.359 15.867 86.826 o
-11 1 9 5.817 3.256 15.788 87.756 o
-11 1 10 12.600 9.490 15.542 90.434 o
-11 1 11 63.826 72.352 16.183 79.569 o
-11 1 12 0.909 3.521 13.977 111.989 o
-11 1 13 15.868 14.486 13.304 123.135 o
-11 1 14 4.723 -4.736 12.994 129.553 o
-11 1 15 8.744 9.901 15.241 94.091 o
-11 1 16 17.891 11.959 14.229 107.666 o
-11 1 17 20.870 39.255 15.556 89.620 o
-11 1 18 1.026 -0.997 11.248 172.921 o
-11 1 19 29.497 35.875 14.165 107.472 o
-11 3 1 0.299 6.186 10.263 207.691 o
-11 3 2 21.740 24.792 12.196 145.609 o
-11 3 3 1.610 -2.976 12.300 144.605 o
-11 3 4 22.974 29.359 13.164 124.920 o
-11 3 5 0.012 -11.866 11.369 169.278 o
-11 3 6 785.071 806.764 23.089 9.184 o
-11 3 7 0.010 3.429 14.130 109.586 o
-11 3 8 164.967 194.389 16.871 58.406 o
-11 3 9 11.720 24.728 13.985 111.431 o
-11 3 10 31.038 34.373 14.092 108.512 o
-11 3 11 0.250 11.015 13.666 117.128 o
-11 3 12 3.926 4.956 12.865 132.149 o
-11 3 13 0.366 8.331 15.266 93.869 o
-11 3 14 6.573 19.579 12.896 131.295 o
-11 3 15 330.067 329.198 24.080 24.305 o
-11 3 16 95.865 99.281 11.837 130.362 o
-11 3 17 327.357 378.380 24.287 23.296 o
-11 5 1 289.294 255.934 15.618 46.366 o
-11 5 2 3.580 -2.408 14.613 102.460 o
-11 5 3 32.147 31.438 12.111 146.170 o
-11 5 4 14.022 14.653 11.599 161.906 o
-11 5 5 0.036 19.665 14.141 109.343 o
-11 5 6 11.214 5.108 13.630 117.611 o
-11 5 7 1.606 7.159 14.538 103.502 o
-11 5 8 0.029 0.107 10.477 199.330 o
-11 5 9 60.825 87.488 11.631 146.257 o
-11 5 10 35.007 27.682 9.898 216.427 o
-11 5 11 37.135 53.452 16.769 76.360 o
-10 0 2 108.027 116.694 15.938 75.378 o
-10 0 4 187.228 187.514 13.008 80.271 o
-10 0 6 298.230 315.327 20.700 31.229 o
-10 0 8 73.554 73.274 23.366 38.940 o
-10 0 10 3873.990 3957.540 115.827 0.376 o
-10 0 12 1186.580 1197.310 98.136 1.585 o
-10 0 14 41.406 49.601 18.775 61.076 o
-10 0 16 106.312 96.758 18.152 60.639 o
-10 0 18 20.084 9.080 16.266 82.443 o
-10 0 20 21.291 30.707 18.044 66.837 o
-10 2 1 60.240 60.942 10.741 173.440 o
-10 2 2 84.897 86.870 11.711 137.854 o
-10 2 3 180.820 163.175 13.609 79.454 o
-10 2 4 263.472 290.491 14.857 49.787 o
-10 2 5 492.648 522.155 17.849 20.595 o
-10 2 6 645.098 677.802 25.898 11.287 o
-10 2 7 98.180 102.860 16.776 70.409 o
-10 2 8 3.069 22.540 15.398 92.171 o
-10 2 9 21.960 16.421 15.084 95.657 o
-10 2 10 7.386 5.548 15.190 94.769 o
-10 2 11 34.304 36.949 19.149 59.081 o
-10 2 12 7.401 6.904 17.225 73.704 o
-10 2 13 31.973 28.200 16.757 77.159 o
-10 2 14 24.821 14.309 22.126 44.572 o
-10 2 15 306.670 317.891 26.753 21.889 o
-10 2 16 2.870 8.101 15.838 87.207 o
-10 2 17 103.404 113.746 15.462 80.229 o
-10 2 18 0.082 -0.865 16.938 76.264 o
-10 2 19 11.054 18.328 20.081 54.188 o
-10 2 20 32.877 51.074 19.888 54.697 o
-10 4 1 34.225 59.112 19.768 55.240 o
-10 4 2 16.249 47.741 19.802 55.497 o
-10 4 3 7.141 16.258 15.609 89.689 o
-10 4 4 10.723 5.353 15.357 92.680 o
-10 4 5 103.405 113.276 15.735 77.829 o
-10 4 6 311.743 361.147 20.119 30.300 o
-10 4 7 96.651 109.488 13.500 103.078 o
-10 4 8 1.730 -2.253 12.908 131.307 o
-10 4 9 8.412 9.217 9.746 229.793 o
-10 4 10 6.375 0.105 10.132 213.016 o
-10 4 11 20.494 15.155 9.533 238.043 o
-10 4 12 5.856 -4.581 9.301 252.780 o
-10 4 13 69.529 75.195 12.608 125.753 o
-10 4 14 298.086 289.457 20.069 33.175 o
-10 4 15 23.399 30.453 11.748 156.330 o
-10 4 16 193.804 155.258 23.994 32.551 o
-10 4 17 28.297 -20.577 49.068 9.084 o
-10 6 1 1425.410 1271.540 337.460 0.183 o
-10 6 2 47.351 42.734 12.335 138.192 o
-10 6 3 466.593 427.717 18.988 22.631 o
-10 6 4 27.007 24.477 10.736 186.546 o
-10 6 5 30.944 40.304 10.669 186.615 o
-10 6 6 40.574 48.377 10.463 190.297 o
-10 6 7 0.005 -5.425 9.673 233.817 o
-10 6 8 13.669 14.931 12.510 139.284 o
-10 6 9 24.444 37.374 18.563 63.049 o
-9 1 1 360.347 367.247 13.521 38.370 o
-9 1 2 0.840 3.341 8.105 332.997 o
-9 1 3 24.498 27.547 8.791 276.264 o
-9 1 4 45.484 57.955 8.746 261.258 o
-9 1 5 0.113 -4.543 8.591 296.444 o
-9 1 6 0.015 6.326 8.557 298.749 o
-9 1 7 319.254 336.986 12.517 46.736 o
-9 1 8 27.849 25.627 12.298 142.627 o
-9 1 9 180.669 179.383 14.327 72.699 o
-9 1 10 285.330 270.607 17.340 41.102 o
-9 1 11 525.018 514.102 21.694 17.208 o
-9 1 12 35.067 43.312 14.343 104.226 o
-9 1 13 59.614 63.165 14.574 97.990 o
-9 1 14 78.032 78.781 13.184 114.030 o
-9 1 15 4.083 8.309 15.537 90.597 o
-9 1 16 72.877 72.480 16.521 75.829 o
-9 1 17 128.977 137.028 16.509 67.607 o
-9 1 18 6.858 -2.572 17.523 71.242 o
-9 1 19 20.982 27.825 13.466 119.613 o
-9 1 20 105.232 117.767 16.154 73.864 o
-9 1 21 2.943 -7.937 12.368 143.018 o
-9 3 1 0.155 -2.750 10.039 217.111 o
-9 3 2 8.956 14.103 9.929 221.183 o
-9 3 3 9.621 11.851 9.802 226.993 o
-9 3 4 16.806 14.348 11.322 169.699 o
-9 3 5 208.243 234.111 14.935 60.508 o
-9 3 6 56.575 64.512 12.348 134.399 o
-9 3 7 325.316 349.731 20.696 28.945 o
-9 3 8 127.594 116.900 13.095 100.917 o
-9 3 9 8.240 12.836 12.328 143.702 o
-9 3 10 202.681 209.631 14.086 67.904 o
-9 3 11 54.752 53.926 13.074 121.775 o
-9 3 12 410.038 428.970 17.473 26.814 o
-9 3 13 17.709 5.334 12.449 140.686 o
-9 3 14 652.538 650.593 26.215 11.283 o
-9 3 15 98.692 118.554 19.818 51.428 o
-9 3 16 3518.330 3932.560 109.800 0.425 o
-9 3 17 7.748 8.494 15.358 92.693 o
-9 3 18 95.309 82.293 14.939 88.383 o
-9 3 19 52.697 62.630 13.745 110.416 o
-9 3 20 3.572 12.236 12.031 151.018 o
-9 5 1 540.769 509.776 22.546 16.362 o
-9 5 2 7.889 2.873 19.910 55.180 o
-9 5 3 0.065 -17.401 21.908 45.587 o
-9 5 4 19.577 34.496 21.510 47.110 o
-9 5 5 16.448 27.326 23.911 38.189 o
-9 5 6 29.093 32.497 17.152 73.695 o
-9 5 7 28.806 27.814 16.490 79.765 o
-9 5 8 4.652 8.471 12.593 137.879 o
-9 5 9 2.475 14.269 11.953 153.017 o
-9 5 10 2.235 2.785 11.600 162.585 o
-9 5 11 241.717 228.517 16.058 51.630 o
-9 5 12 20.927 12.391 11.399 167.143 o
-9 5 13 0.377 -4.508 12.009 151.704 o
-9 5 14 10.323 19.489 11.854 155.136 o
-9 5 15 0.039 11.198 12.088 149.694 o
-8 0 2 16408.900 16988.800 321.275 0.024 o
-8 0 4 24.085 23.631 12.809 131.993 o
-8 0 6 396.970 383.635 17.884 28.278 o
-8 0 8 215.567 184.759 21.088 38.461 o
-8 0 10 14.768 8.661 20.374 52.650 o
-8 0 12 180.511 158.564 23.470 34.230 o
-8 0 14 0.667 -5.936 13.726 116.133 o
-8 0 16 299.209 312.233 17.793 37.208 o
-8 0 18 0.041 0.316 14.048 110.864 o
-8 0 20 337.281 322.542 16.746 36.113 o
-8 0 22 197.910 178.453 16.541 57.345 o
-8 2 1 122.866 117.382 9.086 174.046 o
-8 2 2 108.155 105.582 9.043 189.118 o
-8 2 3 0.141 2.289 8.878 277.605 o
-8 2 4 0.025 3.352 8.969 271.996 o
-8 2 5 343.483 356.074 12.509 42.685 o
-8 2 6 47.727 57.452 13.567 114.118 o
-8 2 7 365.339 371.158 14.115 36.672 o
-8 2 8 217.397 210.139 12.921 72.184 o
-8 2 9 108.149 103.887 15.615 78.878 o
-8 2 10 57.641 57.522 14.300 102.111 o
-8 2 11 131.763 142.481 15.578 73.762 o
-8 2 12 109.113 101.114 19.180 54.531 o
-8 2 13 8.409 -2.095 13.430 121.237 o
-8 2 14 596.161 666.916 17.631 15.169 o
-8 2 15 1593.790 1577.710 33.293 2.562 o
-8 2 16 328.706 325.315 15.366 39.621 o
-8 2 17 415.466 401.921 21.661 22.633 o
-8 2 18 27.772 40.662 10.700 186.167 o
-8 2 19 3.885 6.990 11.184 174.810 o
-8 2 20 50.708 44.859 9.959 206.055 o
-8 2 21 18.286 22.306 9.928 219.438 o
-8 2 22 7.592 12.135 12.595 137.715 o
-8 4 1 38.525 45.524 13.111 123.744 o
-8 4 2 45.776 63.022 14.657 98.275 o
-8 4 3 129.726 155.909 19.351 50.773 o
-8 4 4 190.372 189.371 21.704 37.890 o
-8 4 5 240.337 215.378 15.721 53.924 o
-8 4 6 211.221 223.784 16.506 53.479 o
-8 4 7 16.155 11.131 14.162 108.763 o
-8 4 8 41.862 40.532 12.741 130.709 o
-8 4 9 6.463 8.597 12.633 136.976 o
-8 4 10 1.799 3.373 11.417 167.839 o
-8 4 11 13.883 10.605 11.762 157.606 o
-8 4 12 6.677 5.817 11.105 177.240 o
-8 4 13 25.684 36.969 11.060 175.213 o
-8 4 14 71.011 55.645 11.598 148.533 o
-8 4 15 146.648 144.368 12.620 98.573 o
-8 4 16 592.656 611.415 18.643 15.581 o
-8 4 17 84.447 91.492 9.518 194.004 o
-8 4 18 0.339 -0.704 9.743 230.474 o
-8 4 19 0.240 -4.779 11.127 176.732 o
-8 6 1 73.833 86.406 21.873 44.079 o
-8 6 2 572.497 573.228 26.331 13.183 o
-8 6 3 0.043 -5.909 15.636 89.499 o
-8 6 4 2.944 9.331 13.177 125.963 o
-8 6 5 11.223 8.100 12.644 136.591 o
-8 6 6 0.706 3.101 12.681 136.058 o
-8 6 7 11.437 20.361 14.500 103.765 o
-8 6 8 22.313 24.137 14.563 102.421 o
-8 6 9 276.996 261.342 24.608 26.580 o
-8 6 10 1.464 5.336 10.010 218.293 o
-8 6 11 615.412 597.937 18.608 15.184 o
-8 6 12 107.029 104.481 12.534 114.960 o
-8 6 13 114.001 106.100 11.957 121.885 o
-7 1 1 5761.520 5907.560 72.795 0.209 o
-7 1 2 1100.580 1159.280 19.587 5.363 o
-7 1 3 498.521 523.118 20.034 18.898 o
-7 1 4 2102.210 2071.880 32.964 1.565 o
-7 1 5 16.641 14.139 7.794 355.883 o
-7 1 6 34.833 35.512 8.107 315.532 o
-7 1 7 4.774 -2.088 6.868 463.611 o
-7 1 8 14.736 21.386 10.851 184.497 o
-7 1 9 142.866 145.574 12.335 102.706 o
-7 1 10 21.337 30.565 9.752 225.875 o
-7 1 11 621.079 616.372 15.295 16.034 o
-7 1 12 6.991 2.909 8.715 287.692 o
-7 1 13 69.344 73.136 9.266 217.605 o
-7 1 14 208.582 210.124 12.345 77.812 o
-7 1 15 352.183 322.160 13.624 41.240 o
-7 1 16 15.015 7.255 11.023 179.385 o
-7 1 17 84.329 80.303 11.733 138.515 o
-7 1 18 4.638 2.359 12.308 144.386 o
-7 1 19 17.770 18.547 10.892 182.942 o
-7 1 20 92.094 98.152 12.545 119.256 o
-7 1 21 98.592 95.048 10.979 147.341 o
-7 1 22 62.895 65.641 9.749 204.410 o
-7 1 23 8.014 4.847 7.834 355.704 o
-7 3 1 29.251 27.767 7.863 340.464 o
-7 3 2 198.070 207.231 10.799 92.799 o
-7 3 3 2.252 -1.268 8.483 303.990 o
-7 3 4 86.862 123.702 10.972 146.507 o
-7 3 5 84.092 72.141 11.498 144.782 o
-7 3 6 4603.810 4776.700 76.334 0.313 o
-7 3 7 11.879 0.015 11.200 174.169 o
-7 3 8 257.013 265.252 16.187 47.481 o
-7 3 9 57.896 44.502 12.163 139.938 o
-7 3 10 126.228 126.016 11.789 117.723 o
-7 3 11 0.154 12.724 10.586 195.161 o
-7 3 12 48.265 55.709 11.018 169.616 o
-7 3 13 2.886 0.950 11.154 175.831 o
-7 3 14 6.432 10.467 12.537 139.046 o
-7 3 15 1240.220 1297.510 33.567 3.773 o
-7 3 16 530.928 504.007 23.307 16.257 o
-7 3 17 687.573 730.695 30.805 9.115 o
-7 3 18 482.208 486.135 15.398 23.632 o
-7 3 19 14.645 14.258 10.297 205.140 o
-7 3 20 4.545 -1.353 9.256 255.299 o
-7 3 21 22.038 42.094 14.329 105.324 o
-7 5 1 1005.760 1044.330 37.057 4.939 o
-7 5 2 39.104 31.861 20.740 50.401 o
-7 5 3 28.466 22.900 22.612 42.617 o
-7 5 4 131.899 141.604 17.347 61.682 o
-7 5 5 11.043 13.278 13.870 113.486 o
-7 5 6 42.521 51.180 25.892 32.344 o
-7 5 7 30.435 24.478 12.675 134.199 o
-7 5 8 0.570 3.173 13.024 128.977 o
-7 5 9 145.414 139.111 14.014 85.164 o
-7 5 10 114.711 105.973 13.323 102.087 o
-7 5 11 53.304 58.969 14.432 100.708 o
-7 5 12 0.152 -7.614 12.821 133.096 o
-7 5 13 106.473 126.245 12.764 109.077 o
-7 5 14 29.367 23.654 12.880 130.141 o
-7 5 15 7.627 4.383 17.963 67.784 o
-7 5 16 51.838 52.843 10.930 171.616 o
-7 5 17 47.887 36.948 8.321 291.703 o
-7 5 18 62.374 75.726 26.908 29.679 o
-7 7 1 104.231 133.252 15.750 76.426 o
-7 7 2 100.912 135.878 42.519 11.857 o
-7 7 3 6.293 -9.426 14.922 98.239 o
-7 7 4 77.336 93.651 13.604 106.597 o
-7 7 5 31.994 24.472 12.780 131.893 o
-7 7 6 6.242 1.750 16.318 82.147 o
-7 7 7 5.753 0.826 11.730 158.948 o
-7 7 8 4.070 3.005 13.406 121.718 o
-7 7 9 0.703 -7.502 12.152 148.175 o
-6 0 2 265.414 267.158 14.690 51.576 o
-6 0 4 1113.570 1088.910 29.746 4.879 o
-6 0 6 3183.400 3199.330 54.380 0.665 o
-6 0 8 2.884 4.328 14.560 103.198 o
-6 0 10 22893.600 23349.200 439.830 0.012 o
-6 0 12 1620.730 1765.440 37.019 2.285 o
-6 0 14 8.497 15.496 13.466 120.423 o
-6 0 16 357.052 343.315 18.717 30.545 o
-6 0 18 125.836 114.307 16.147 71.840 o
-6 0 20 229.790 226.738 16.954 49.542 o
-6 0 22 68.341 51.815 12.177 136.820 o
-6 0 24 108.642 92.022 15.540 80.204 o
-6 2 1 1742.950 1710.220 27.976 2.274 o
-6 2 2 904.666 887.619 14.879 8.408 o
-6 2 3 228.885 224.956 8.605 96.545 o
-6 2 4 2050.020 2089.690 31.693 1.615 o
-6 2 5 1842.380 1888.070 28.991 1.988 o
-6 2 6 1833.490 1763.080 31.436 2.056 o
-6 2 7 143.607 149.127 12.267 102.822 o
-6 2 8 69.240 54.374 9.911 198.183 o
-6 2 9 55.138 40.840 10.281 193.319 o
-6 2 10 2.094 -7.287 10.290 206.616 o
-6 2 11 62.279 69.826 11.203 158.686 o
-6 2 12 23.275 29.936 11.207 171.589 o
-6 2 13 105.644 102.876 11.754 128.362 o
-6 2 14 166.795 162.650 19.511 47.433 o
-6 2 15 1401.110 1468.220 33.598 3.082 o
-6 2 16 0.468 -10.301 13.807 114.775 o
-6 2 17 203.655 200.755 12.614 78.100 o
-6 2 18 16.533 18.731 11.871 154.290 o
-6 2 19 70.286 69.385 12.358 130.902 o
-6 2 20 65.420 50.991 11.928 142.916 o
-6 2 21 14.939 13.268 10.685 190.636 o
-6 2 22 0.009 -4.216 8.709 288.501 o
-6 2 23 7.710 14.267 7.723 365.073 o
-6 4 1 413.695 369.834 21.250 23.763 o
-6 4 2 141.637 140.455 10.783 124.993 o
-6 4 3 4.051 14.613 11.067 178.384 o
-6 4 4 10.773 0.424 14.931 98.072 o
-6 4 5 360.504 380.164 24.802 21.619 o
-6 4 6 1031.690 1154.880 36.971 4.599 o
-6 4 7 307.614 310.802 19.063 33.969 o
-6 4 8 41.789 56.627 15.867 84.742 o
-6 4 9 68.820 46.986 26.639 30.354 o
-6 4 10 37.969 46.151 11.065 171.844 o
-6 4 11 75.105 52.451 11.506 150.043 o
-6 4 12 54.380 58.687 11.482 155.163 o
-6 4 13 286.913 302.183 14.043 48.796 o
-6 4 14 1151.120 1177.050 23.605 4.841 o
-6 4 15 6.251 0.422 12.368 142.988 o
-6 4 16 229.854 222.249 19.128 42.231 o
-6 4 17 0.473 13.824 12.623 137.245 o
-6 4 18 18.027 24.023 10.129 210.823 o
-6 4 19 9.984 10.149 8.867 277.253 o
-6 4 20 0.220 -1.206 8.130 331.016 o
-6 4 21 38.550 30.390 15.195 93.233 o
-6 6 1 4374.100 4398.310 87.870 0.340 o
-6 6 2 239.864 234.216 22.314 32.914 o
-6 6 3 643.781 634.194 25.111 11.895 o
-6 6 4 17.963 1375.320 1234.170 0.014 o
-6 6 5 25.394 36.878 11.277 168.697 o
-6 6 6 202.357 195.902 16.385 56.600 o
-6 6 7 2.137 6.704 12.270 145.279 o
-6 6 8 2.455 -7.175 13.027 128.929 o
-6 6 9 91.452 71.095 15.119 87.618 o
-6 6 10 705.497 654.809 40.466 7.210 o
-6 6 11 1.432 6.387 12.856 132.352 o
-6 6 12 79.716 69.103 13.465 110.282 o
-6 6 13 0.981 2.154 12.167 147.784 o
-6 6 14 1.273 14.938 14.785 100.040 o
-6 6 15 0.170 -2.602 21.305 48.201 o
-6 6 16 44.051 23.328 10.168 203.604 o
-5 1 1 3801.880 3822.450 68.735 0.461 o
-5 1 2 74.085 60.938 9.451 211.114 o
-5 1 3 160.577 153.243 11.122 110.859 o
-5 1 4 782.001 803.980 20.455 9.708 o
-5 1 5 440.761 413.224 15.576 27.649 o
-5 1 6 59.547 58.609 8.841 247.223 o
-5 1 7 1191.990 1205.990 23.403 4.590 o
-5 1 8 72.455 88.586 7.452 298.174 o
-5 1 9 983.546 1002.230 16.429 6.933 o
-5 1 10 217.266 226.590 9.339 95.007 o
-5 1 11 882.662 894.234 17.857 8.306 o
-5 1 12 22.756 19.671 9.903 219.962 o
-5 1 13 296.556 321.953 12.704 50.242 o
-5 1 14 261.870 273.353 12.140 61.570 o
-5 1 15 2.151 35.011 16.463 80.581 o
-5 1 16 105.137 94.151 12.525 116.864 o
-5 1 17 350.667 333.437 13.121 41.863 o
-5 1 18 63.738 44.230 10.559 180.611 o
-5 1 19 40.953 50.877 12.081 144.217 o
-5 1 20 295.611 266.452 14.453 48.656 o
-5 1 21 3.179 5.584 11.475 166.114 o
-5 1 22 27.331 11.328 9.158 256.495 o
-5 1 23 17.990 20.732 8.949 269.644 o
-5 1 24 61.750 58.045 12.481 131.365 o
-5 3 1 10.773 7.824 8.463 304.318 o
-5 3 2 198.742 205.888 10.641 94.144 o
-5 3 3 32.194 25.830 7.725 350.980 o
-5 3 4 12.537 14.502 9.951 219.808 o
-5 3 5 1219.540 1275.950 32.022 3.947 o
-5 3 6 1044.330 1016.400 21.279 6.063 o
-5 3 7 1258.870 1390.400 27.493 3.802 o
-5 3 8 252.349 273.422 12.811 60.388 o
-5 3 9 0.276 0.578 9.499 242.483 o
-5 3 10 700.026 685.891 16.396 12.923 o
-5 3 11 223.510 235.289 12.363 71.684 o
-5 3 12 1268.610 1269.880 22.347 4.173 o
-5 3 13 130.558 126.694 12.033 112.765 o
-5 3 14 2763.510 2831.680 47.231 0.872 o
-5 3 15 471.858 529.309 20.682 19.226 o
-5 3 16 8464.050 8838.570 180.694 0.088 o
-5 3 17 8.240 13.670 12.681 135.802 o
-5 3 18 0.157 14.679 13.942 112.521 o
-5 3 19 98.992 110.324 11.812 128.225 o
-5 3 20 35.486 43.514 12.814 129.850 o
-5 3 21 12.806 23.598 9.284 251.511 o
-5 3 22 24.078 41.664 8.884 268.233 o
-5 3 23 10.457 6.865 12.430 141.386 o
-5 5 1 844.953 862.685 19.038 8.769 o
-5 5 2 7.629 -5.600 11.987 152.187 o
-5 5 3 118.512 110.590 12.251 115.372 o
-5 5 4 50.650 43.372 12.016 144.680 o
-5 5 5 0.674 -1.858 13.552 119.126 o
-5 5 6 63.294 65.588 14.697 95.926 o
-5 5 7 166.227 162.026 14.818 73.028 o
-5 5 8 4.285 -3.443 24.813 35.537 o
-5 5 9 14.457 5.115 12.825 132.713 o
-5 5 10 43.863 50.653 13.666 113.347 o
-5 5 11 578.853 574.841 20.746 15.485 o
-5 5 12 138.282 139.972 12.858 98.505 o
-5 5 13 0.025 2.887 11.529 164.610 o
-5 5 14 75.080 72.864 15.512 85.170 o
-5 5 15 7.502 13.380 13.733 115.853 o
-5 5 16 120.575 132.700 11.684 120.047 o
-5 5 17 124.040 108.709 11.016 134.212 o
-5 5 18 18.058 15.777 8.739 283.199 o
-5 5 19 60.151 73.593 7.712 304.840 o
-5 7 1 112.242 113.259 15.547 78.406 o
-5 7 2 27.015 13.101 14.471 103.754 o
-5 7 3 0.016 86.448 282.979 0.273 o
-5 7 4 0.021 8.329 14.286 107.189 o
-5 7 5 59.352 66.617 14.481 99.023 o
-5 7 6 7.404 4.692 14.564 103.098 o
-5 7 7 2.331 -1.728 15.374 92.561 o
-5 7 8 12.269 13.825 13.819 114.285 o
-5 7 9 0.229 -3.756 11.681 160.339 o
-5 7 10 111.655 86.869 18.546 58.276 o
-5 7 11 9.671 29.655 17.442 71.730 o
-5 7 12 29.269 17.922 17.341 72.303 o
-4 0 2 41006.400 42799.900 800.465 0.004 o
-4 0 4 1041.390 1018.300 28.757 5.505 o
-4 0 6 2585.530 2428.240 74.178 0.897 o
-4 0 8 2673.200 2361.580 53.369 0.981 o
-4 0 10 89.174 98.283 11.326 142.701 o
-4 0 12 504.981 535.595 18.837 19.247 o
-4 0 14 88.892 86.081 12.812 117.034 o
-4 0 16 1515.450 1504.000 33.587 2.784 o
-4 0 18 64.617 64.547 17.693 67.250 o
-4 0 20 689.153 581.442 24.005 11.934 o
-4 0 22 289.427 243.348 20.086 35.024 o
-4 0 24 22.053 19.208 14.634 101.543 o
-4 2 1 917.377 877.559 21.175 7.660 o
-4 2 2 288.191 270.565 13.602 52.116 o
-4 2 3 17.565 6.390 10.160 210.799 o
-4 2 4 3.191 -1.613 9.778 228.792 o
-4 2 5 1822.260 1826.470 34.851 1.987 o
-4 2 6 193.188 166.316 15.556 63.979 o
-4 2 7 986.293 969.154 22.418 6.560 o
-4 2 8 1242.490 1257.940 20.100 4.385 o
-4 2 9 897.715 852.868 21.776 7.899 o
-4 2 10 157.120 136.204 11.962 104.436 o
-4 2 11 529.776 576.268 16.254 19.191 o
-4 2 12 876.303 809.012 18.614 8.772 o
-4 2 13 0.424 -1.381 14.300 107.001 o
-4 2 14 955.307 1040.370 54.661 3.748 o
-4 2 15 3143.960 3378.010 71.551 0.613 o
-4 2 16 75.175 62.555 15.976 81.019 o
-4 2 17 554.053 594.879 23.898 14.391 o
-4 2 18 230.296 234.422 16.208 51.993 o
-4 2 19 9.754 25.529 16.251 82.644 o
-4 2 20 102.863 94.338 15.515 80.983 o
-4 2 21 69.754 61.425 11.693 145.919 o
-4 2 22 10.467 16.415 11.154 175.212 o
-4 2 23 19.946 15.989 10.688 189.836 o
-4 2 24 49.398 62.475 11.443 156.882 o
-4 4 1 322.169 326.748 11.425 49.815 o
-4 4 2 81.107 73.822 15.771 81.962 o
-4 4 3 774.093 791.173 26.443 8.785 o
-4 4 4 554.795 616.516 23.349 14.390 o
-4 4 5 334.039 317.242 20.548 29.566 o
-4 4 6 363.011 379.363 20.372 26.847 o
-4 4 7 15.131 13.523 13.509 119.474 o
-4 4 8 364.898 341.723 13.028 40.106 o
-4 4 9 30.099 28.775 10.611 189.952 o
-4 4 10 0.395 4.530 9.688 233.113 o
-4 4 11 40.182 32.820 11.775 153.173 o
-4 4 12 81.479 85.175 13.277 111.380 o
-4 4 13 76.727 74.713 11.286 151.514 o
-4 4 14 172.356 169.022 14.184 76.084 o
-4 4 15 270.114 267.600 16.319 45.590 o
-4 4 16 786.192 852.885 22.076 9.069 o
-4 4 17 132.240 139.333 14.535 82.673 o
-4 4 18 17.843 22.188 9.912 220.240 o
-4 4 19 2.647 7.175 10.102 214.282 o
-4 4 20 15.407 19.870 8.637 290.007 o
-4 4 21 0.217 -3.857 8.681 290.356 o
-4 4 22 11.201 5.150 9.959 220.037 o
-4 6 1 118.578 129.141 20.161 48.578 o
-4 6 2 648.627 672.891 25.692 11.333 o
-4 6 3 9.420 15.027 21.235 48.480 o
-4 6 4 100.650 81.008 18.202 61.218 o
-4 6 5 14.990 -5.138 19.316 58.598 o
-4 6 6 12.003 14.445 13.132 126.526 o
-4 6 7 23.372 36.391 13.395 120.430 o
-4 6 8 28.666 16.903 13.075 126.646 o
-4 6 9 1023.360 924.014 33.099 5.492 o
-4 6 10 1.841 -9.211 14.506 103.978 o
-4 6 11 985.225 878.385 25.314 6.635 o
-4 6 12 221.694 226.052 16.504 52.209 o
-4 6 13 59.588 67.035 13.393 114.723 o
-4 6 14 16.426 19.821 12.568 137.730 o
-4 6 15 3.376 6.239 11.823 156.460 o
-4 6 16 103.173 70.116 11.703 135.070 o
-4 6 17 15.668 17.712 12.965 129.553 o
-4 8 1 3.890 -98.951 175.438 0.711 o
-4 8 2 106.890 191.511 166.911 0.784 o
-4 8 3 108.498 48.983 152.641 0.938 o
-4 8 4 56.512 40.620 122.195 1.465 o
-4 8 5 263.103 332.079 397.924 0.138 o
-3 1 1 12908.500 12711.400 241.385 0.040 o
-3 1 2 915.477 872.003 21.715 7.642 o
-3 1 3 6862.230 6768.040 117.066 0.145 o
-3 1 4 9129.220 9189.980 174.729 0.079 o
-3 1 5 1097.790 1064.070 24.872 5.341 o
-3 1 6 1701.000 1720.450 43.900 2.081 o
-3 1 7 337.480 342.655 16.931 34.972 o
-3 1 8 62.333 75.737 10.865 166.764 o
-3 1 9 1349.250 1435.130 22.587 3.585 o
-3 1 10 195.347 231.221 8.430 110.689 o
-3 1 11 2372.710 2400.330 33.077 1.229 o
-3 1 12 7.758 25.523 13.991 111.457 o
-3 1 13 137.582 135.538 14.316 84.097 o
-3 1 14 1049.780 1073.700 27.168 5.424 o
-3 1 15 1405.700 1449.740 27.354 3.270 o
-3 1 16 4.815 20.809 11.086 177.573 o
-3 1 17 67.931 65.754 11.899 141.252 o
-3 1 18 53.027 40.138 11.531 156.322 o
-3 1 19 6.739 6.280 11.185 174.696 o
-3 1 20 134.213 128.626 11.581 117.803 o
-3 1 21 210.976 204.873 10.880 88.584 o
-3 1 22 54.992 47.351 10.770 176.306 o
-3 1 23 5.360 8.331 10.116 213.549 o
-3 1 24 28.443 9.564 16.998 75.352 o
-3 1 25 59.010 38.451 10.118 198.197 o
-3 3 1 192.272 204.498 12.941 77.855 o
-3 3 2 1188.250 1219.800 31.969 4.163 o
-3 3 3 6.678 3.731 11.371 169.084 o
-3 3 4 1196.270 1352.440 29.164 4.021 o
-3 3 5 977.243 1017.760 20.419 6.613 o
-3 3 6 16206.800 16998.900 227.006 0.026 o
-3 3 7 0.086 -1.858 7.966 344.751 o
-3 3 8 58.008 74.058 10.377 183.080 o
-3 3 9 163.599 161.836 10.473 116.406 o
-3 3 10 136.367 155.944 9.745 141.060 o
-3 3 11 3.972 6.522 9.147 261.293 o
-3 3 12 85.032 86.802 11.539 141.396 o
-3 3 13 50.726 69.134 12.688 128.316 o
-3 3 14 334.307 413.139 18.945 29.490 o
-3 3 15 2909.540 2963.320 52.952 0.780 o
-3 3 16 1052.230 1073.840 34.280 4.882 o
-3 3 17 731.494 751.730 24.873 9.837 o
-3 3 18 614.985 593.088 24.654 12.903 o
-3 3 19 3.766 0.506 10.480 199.175 o
-3 3 20 34.920 35.338 11.562 159.366 o
-3 3 21 34.603 31.259 10.600 189.171 o
-3 3 22 315.506 310.530 13.807 45.506 o
-3 3 23 41.414 51.961 9.148 244.091 o
-3 5 1 2477.420 2474.680 35.693 1.131 o
-3 5 2 452.669 426.301 14.207 27.970 o
-3 5 3 26.776 29.691 19.363 58.004 o
-3 5 4 419.644 453.019 17.476 25.678 o
-3 5 5 88.520 68.221 13.200 112.825 o
-3 5 6 46.141 47.178 10.919 174.214 o
-3 5 7 97.929 98.715 13.386 105.399 o
-3 5 8 8.381 -1.126 17.125 74.582 o
-3 5 9 121.571 69.395 14.453 90.840 o
-3 5 10 162.190 131.690 18.032 55.640 o
-3 5 11 61.702 36.935 12.597 130.938 o
-3 5 12 5.965 5.511 12.903 131.337 o
-3 5 13 243.620 242.570 14.976 54.887 o
-3 5 14 73.436 94.386 13.416 109.927 o
-3 5 15 69.853 73.982 13.570 109.900 o
-3 5 16 81.964 80.866 12.921 117.277 o
-3 5 17 147.913 164.091 11.861 104.231 o
-3 5 18 109.365 127.598 10.589 144.525 o
-3 5 19 50.112 51.542 8.292 286.795 o
-3 5 20 34.796 28.030 7.820 340.386 o
-3 7 1 60.652 95.517 15.652 84.029 o
-3 7 2 137.845 151.889 16.031 69.054 o
-3 7 3 57.731 62.207 15.001 92.965 o
-3 7 4 94.681 110.179 17.001 68.716 o
-3 7 5 74.343 81.116 16.358 76.807 o
-3 7 6 68.734 80.081 16.360 77.275 o
-3 7 7 9.073 19.861 13.818 114.313 o
-3 7 8 23.109 37.049 115.345 1.644 o
-3 7 9 8.784 3.210 16.909 76.489 o
-3 7 10 58.459 50.225 15.815 84.391 o
-3 7 11 3.957 11.161 20.553 51.780 o
-3 7 12 20.573 31.811 14.839 98.582 o
-3 7 13 3.566 16.244 11.623 161.750 o
-3 7 14 21.938 62.680 195.955 0.570 o
-2 0 2 4.820 12.659 9.402 247.083 o
-2 0 4 989.646 1015.870 26.188 6.040 o
-2 0 6 10125.100 9719.830 214.189 0.064 o
-2 0 8 2275.150 2428.940 59.498 1.123 o
-2 0 10 58633.000 61249.200 1148.860 0.002 o
-2 0 12 388.370 445.363 14.098 31.819 o
-2 0 14 7.998 21.011 12.569 138.103 o
-2 0 16 419.219 468.111 18.868 23.918 o
-2 0 18 109.031 144.442 14.836 83.151 o
-2 0 20 702.307 673.617 19.458 12.207 o
-2 0 22 106.155 80.493 34.031 18.446 o
-2 0 24 114.412 117.312 18.114 59.561 o
-2 2 1 7305.000 7154.730 138.293 0.126 o
-2 2 2 6313.190 6475.280 126.005 0.162 o
-2 2 3 3.646 12.582 16.330 82.009 o
-2 2 4 5646.280 5878.490 133.962 0.191 o
-2 2 5 5282.630 5427.490 107.052 0.230 o
-2 2 6 1640.440 1603.320 34.189 2.437 o
-2 2 7 50.425 59.057 8.499 271.462 o
-2 2 8 748.883 726.034 17.393 11.388 o
-2 2 9 151.555 146.242 11.008 116.829 o
-2 2 10 10.097 -0.337 9.336 250.660 o
-2 2 11 41.145 49.131 9.426 231.536 o
-2 2 12 13.026 8.021 10.880 184.249 o
-2 2 13 142.634 127.565 12.993 97.412 o
-2 2 14 321.453 284.439 17.365 37.528 o
-2 2 15 3309.330 3465.680 65.009 0.583 o
-2 2 16 7.137 6.571 12.238 145.940 o
-2 2 17 230.522 223.786 12.763 69.152 o
-2 2 18 85.757 90.542 11.893 133.477 o
-2 2 19 185.858 173.097 11.409 96.252 o
-2 2 20 33.194 38.091 10.354 197.525 o
-2 2 21 80.831 87.453 10.152 177.339 o
-2 2 22 21.265 25.145 11.182 172.899 o
-2 2 23 0.276 1.013 9.749 230.188 o
-2 2 24 6.946 2.505 7.974 343.649 o
-2 4 1 1053.400 1019.470 16.149 6.324 o
-2 4 2 589.803 582.618 13.365 18.307 o
-2 4 3 131.494 148.979 11.452 117.187 o
-2 4 4 24.843 60.495 11.417 162.883 o
-2 4 5 1035.580 998.133 25.583 5.853 o
-2 4 6 1491.220 1579.410 31.407 2.806 o
-2 4 7 425.256 396.000 14.149 30.869 o
-2 4 8 327.360 268.315 14.504 44.722 o
-2 4 9 181.793 153.590 14.144 76.074 o
-2 4 10 50.364 66.967 12.433 133.580 o
-2 4 11 238.321 222.083 11.816 73.070 o
-2 4 12 171.916 186.994 10.613 106.799 o
-2 4 13 455.050 474.224 18.898 22.226 o
-2 4 14 2319.240 2331.950 43.398 1.230 o
-2 4 15 367.435 386.662 16.825 31.490 o
-2 4 16 134.637 100.380 14.769 83.240 o
-2 4 17 47.993 48.401 10.584 184.117 o
-2 4 18 74.404 83.782 11.345 149.445 o
-2 4 19 26.763 18.052 10.712 187.930 o
-2 4 20 28.914 41.663 11.696 156.241 o
-2 4 21 68.284 76.850 11.004 160.876 o
-2 4 22 0.098 11.989 10.197 210.302 o
-2 6 1 7010.760 7459.920 165.300 0.123 o
-2 6 2 549.721 585.459 26.069 13.600 o
-2 6 3 326.304 353.225 19.237 31.202 o
-2 6 4 3.103 13.974 14.248 107.704 o
-2 6 5 10.595 14.737 14.041 110.741 o
-2 6 6 445.776 469.180 18.794 22.808 o
-2 6 7 18.292 30.599 16.087 84.063 o
-2 6 8 46.474 48.668 13.292 119.397 o
-2 6 9 119.480 104.859 14.618 86.690 o
-2 6 10 1286.960 1158.150 28.844 4.058 o
-2 6 11 13.002 3.882 14.844 99.160 o
-2 6 12 36.849 22.639 14.066 108.909 o
-2 6 13 0.003 -13.909 13.827 114.438 o
-2 6 14 10.448 -0.053 18.621 63.075 o
-2 6 15 2.933 1.206 14.335 106.472 o
-2 6 16 61.724 88.785 19.235 56.870 o
-2 6 17 63.462 71.430 17.879 65.797 o
-2 8 1 22.869 -59.330 88.013 2.824 o
-2 8 2 62.028 -16.430 196.195 0.568 o
-2 8 3 6.509 15.747 42.349 12.198 o
-2 8 4 4.330 0.440 67.258 4.837 o
-2 8 5 15.451 123.101 195.864 0.570 o
-2 8 6 13.621 -69.523 207.458 0.508 o
-2 8 7 14.445 10.541 30.455 23.577 o
-2 8 8 7.569 12.346 47.802 9.574 o
-1 1 1 17559.400 17274.200 375.280 0.021 o
-1 1 2 1196.650 1002.810 31.071 4.615 o
-1 1 3 401.525 385.986 16.404 29.896 o
-1 1 4 3156.090 3265.250 63.830 0.642 o
-1 1 5 3558.180 3368.300 60.204 0.552 o
-1 1 6 233.304 201.326 8.782 98.046 o
-1 1 7 834.609 726.472 20.281 9.555 o
-1 1 8 1.189 0.478 8.863 278.528 o
-1 1 9 1505.330 1376.760 53.503 2.388 o
-1 1 10 0.057 -0.323 7.935 347.455 o
-1 1 11 455.091 510.997 12.065 27.123 o
-1 1 12 232.229 201.483 9.638 91.913 o
-1 1 13 269.384 317.945 12.354 55.692 o
-1 1 14 229.181 262.197 12.614 66.489 o
-1 1 15 4.573 10.130 9.487 242.752 o
-1 1 16 40.504 38.786 9.640 224.098 o
-1 1 17 410.750 354.725 12.716 35.602 o
-1 1 18 150.717 139.980 10.055 132.694 o
-1 1 19 31.763 33.742 10.069 209.389 o
-1 1 20 365.360 330.180 13.137 40.443 o
-1 1 21 68.457 58.834 11.126 160.481 o
-1 1 22 0.194 11.943 10.765 188.716 o
-1 1 23 3.788 5.958 10.662 192.363 o
-1 1 24 110.508 103.300 11.772 126.469 o
-1 1 25 13.712 16.731 17.156 74.180 o
-1 3 1 18.528 19.108 9.351 247.318 o
-1 3 2 638.239 647.744 16.944 14.596 o
-1 3 3 15.404 30.380 9.735 227.912 o
-1 3 4 660.989 707.638 22.470 11.806 o
-1 3 5 4018.080 4222.040 74.689 0.400 o
-1 3 6 2679.700 2745.530 36.392 0.959 o
-1 3 7 1909.490 2055.370 31.453 1.781 o
-1 3 8 119.198 151.438 8.390 182.129 o
-1 3 9 7.201 5.953 8.133 330.096 o
-1 3 10 751.376 754.567 16.756 11.228 o
-1 3 11 277.871 284.699 12.228 57.469 o
-1 3 12 1322.990 1327.490 30.437 3.590 o
-1 3 13 471.195 435.627 17.949 23.184 o
-1 3 14 6451.400 6490.210 115.367 0.160 o
-1 3 15 826.655 857.613 25.485 8.064 o
-1 3 16 9871.730 10359.200 133.378 0.070 o
-1 3 17 1.144 -2.031 12.617 137.436 o
-1 3 18 134.071 126.896 14.249 86.101 o
-1 3 19 68.245 89.224 12.632 124.144 o
-1 3 20 94.868 109.992 11.479 135.761 o
-1 3 21 36.667 35.572 9.736 221.752 o
-1 3 22 11.603 10.929 10.287 206.034 o
-1 3 23 1.324 -0.696 8.830 280.618 o
-1 5 1 843.421 841.806 23.808 8.226 o
-1 5 2 133.285 122.535 15.894 72.406 o
-1 5 3 429.436 467.766 28.191 15.961 o
-1 5 4 35.476 42.402 25.275 34.027 o
-1 5 5 60.541 69.433 13.200 117.555 o
-1 5 6 55.114 71.884 12.032 140.597 o
-1 5 7 356.419 362.347 17.102 32.614 o
-1 5 8 3.393 11.004 12.804 133.380 o
-1 5 9 95.097 72.316 15.574 82.528 o
-1 5 10 300.405 293.754 13.885 48.115 o
-1 5 11 763.993 664.318 35.298 7.761 o
-1 5 12 275.609 229.954 14.741 52.466 o
-1 5 13 5.863 16.657 13.481 120.210 o
-1 5 14 145.400 168.885 14.871 75.362 o
-1 5 15 32.426 23.795 12.510 137.546 o
-1 5 16 100.440 101.694 14.524 90.825 o
-1 5 17 101.613 84.874 12.282 122.906 o
-1 5 18 0.603 9.583 11.765 158.030 o
-1 5 19 121.911 140.449 12.576 105.954 o
-1 5 20 10.835 2.540 8.289 317.535 o
-1 7 1 7.885 51.521 100.899 2.149 o
-1 7 2 0.007 7.737 29.565 25.030 o
-1 7 3 17.716 26.008 32.764 20.358 o
-1 7 4 6.125 -1.906 31.930 21.460 o
-1 7 5 62.765 82.280 24.847 34.647 o
-1 7 6 1.101 63.058 87.469 2.859 o
-1 7 7 1.291 8.690 34.662 18.210 o
-1 7 8 38.541 54.063 21.178 48.178 o
-1 7 9 3.113 12.847 48.489 9.305 o
-1 7 10 150.743 99.826 42.987 11.512 o
-1 7 11 0.009 -8.837 16.375 81.594 o
-1 7 12 18.849 0.657 15.653 89.118 o
-1 7 13 34.491 7.461 14.360 105.130 o
-1 7 14 6.383 4.713 20.628 51.407 o
0 0 2 18798.800 17728.200 468.846 0.018 o
0 0 4 5931.090 5835.160 156.457 0.172 o
0 0 6 5300.460 5056.700 180.760 0.194 o
0 0 8 6903.240 6847.020 260.851 0.105 o
0 0 10 717.537 810.411 40.837 6.594 o
0 0 12 568.712 614.454 17.318 16.772 o
0 0 14 338.626 374.131 13.778 39.661 o
0 0 16 2112.890 2145.370 33.780 1.516 o
0 0 18 157.088 190.156 16.316 62.611 o
0 0 20 958.119 811.612 37.042 5.746 o
0 0 22 227.499 189.229 41.629 11.708 o
0 0 24 32.341 25.451 16.176 82.778 o
0 2 0 1419.160 1130.130 80.883 1.871 o
0 2 1 2203.860 2061.070 46.430 1.380 o
0 2 2 107.240 103.184 8.714 200.786 o
0 2 3 138.401 99.360 8.114 195.087 o
0 2 4 59.927 51.657 8.792 251.707 o
0 2 5 4868.480 4732.070 106.496 0.274 o
0 2 6 197.347 163.203 11.668 91.924 o
0 2 7 701.025 707.256 19.811 11.834 o
0 2 8 1757.340 1754.390 38.927 2.064 o
0 2 9 1850.920 1739.350 26.593 2.104 o
0 2 10 57.769 47.534 8.071 296.314 o
0 2 11 311.958 344.502 14.238 42.926 o
0 2 12 1977.810 1830.550 32.589 1.820 o
0 2 13 3.070 -3.783 10.832 186.439 o
0 2 14 410.780 415.265 13.549 31.973 o
0 2 15 3235.760 3270.240 49.991 0.652 o
0 2 16 107.079 113.076 12.042 121.506 o
0 2 17 481.743 480.583 14.547 24.468 o
0 2 18 379.911 382.379 13.769 35.483 o
0 2 19 0.288 -1.304 10.726 190.171 o
0 2 20 88.562 74.167 11.403 145.191 o
0 2 21 54.441 48.783 12.321 136.789 o
0 2 22 4.917 5.059 10.240 208.510 o
0 2 23 11.043 7.677 9.049 266.247 o
0 2 24 27.504 33.744 22.265 43.907 o
0 4 0 243.541 245.162 14.668 56.009 o
0 4 1 936.455 940.837 19.038 7.407 o
0 4 2 0.241 0.332 11.298 171.417 o
0 4 3 1404.200 1491.950 31.119 3.116 o
0 4 4 917.444 1046.580 21.193 6.909 o
0 4 5 3.289 2.595 8.947 273.205 o
0 4 6 251.436 320.916 13.842 52.884 o
0 4 7 183.196 187.798 10.671 102.047 o
0 4 8 631.672 619.002 14.729 15.892 o
0 4 9 77.917 79.213 11.359 148.729 o
0 4 10 50.338 59.530 9.475 222.852 o
0 4 11 10.382 4.017 10.136 212.555 o
0 4 12 156.590 145.043 12.369 98.682 o
0 4 13 49.686 50.158 11.114 167.225 o
0 4 14 253.228 259.352 14.815 53.178 o
0 4 15 217.351 207.510 11.652 80.801 o
0 4 16 462.742 471.596 15.724 24.691 o
0 4 17 119.315 119.267 13.548 97.037 o
0 4 18 57.427 63.438 11.472 154.080 o
0 4 19 5.817 9.724 11.427 167.369 o
0 4 20 0.685 -5.727 10.523 197.573 o
0 4 21 20.216 9.601 10.934 181.762 o
0 4 22 0.705 3.610 13.503 119.998 o
0 6 0 6860.380 7493.060 173.169 0.123 o
0 6 1 112.504 109.484 24.233 35.071 o
0 6 2 216.132 249.315 22.640 32.921 o
0 6 3 16.825 6.133 33.987 18.932 o
0 6 4 265.064 261.608 20.220 35.633 o
0 6 5 9.357 -3.575 23.747 38.791 o
0 6 6 69.009 83.517 18.700 59.821 o
0 6 7 1.604 17.220 14.150 109.207 o
0 6 8 15.192 -3.358 20.753 50.767 o
0 6 9 1671.390 1586.800 54.381 2.005 o
0 6 10 0.345 9.395 25.344 34.063 o
0 6 11 741.675 651.975 27.845 9.648 o
0 6 12 196.857 160.512 17.062 55.866 o
0 6 13 1.967 -3.927 22.369 43.728 o
0 6 14 51.824 46.844 14.053 106.781 o
0 6 15 0.997 6.318 12.404 142.187 o
0 6 16 168.418 156.036 14.039 79.097 o
0 6 17 9.847 0.106 14.495 104.067 o
0 8 1 1.895 172.212 364.368 0.165 o
0 8 2 96.565 147.876 58.284 6.369 o
0 8 3 192.342 236.364 67.426 4.683 o
0 8 4 34.689 59.576 71.235 4.307 o
0 8 5 266.134 335.547 40.659 11.518 o
0 8 6 16.225 67.269 141.784 1.088 o
0 8 7 0.037 -16.126 32.717 20.441 o
0 8 8 64.575 59.198 31.973 21.162 o
1 1 0 8352.060 7658.950 143.554 0.102 o
1 1 1 6509.440 6071.370 103.588 0.168 o
1 1 2 27.626 11.721 4.095 1199.870 o
1 1 3 8374.780 7338.140 132.780 0.105 o
1 1 4 7052.420 6576.260 155.126 0.133 o
1 1 5 1618.650 1500.580 35.457 2.543 o
1 1 6 4080.650 3823.600 74.140 0.417 o
1 1 7 515.564 479.137 16.823 21.250 o
1 1 8 172.834 167.458 11.747 97.600 o
1 1 9 3209.430 3259.900 75.781 0.601 o
1 1 10 893.306 977.108 16.541 7.888 o
1 1 11 2947.390 2954.950 36.236 0.812 o
1 1 12 10.186 10.096 8.165 326.673 o
1 1 13 40.013 47.958 8.688 270.666 o
1 1 14 1270.370 1278.060 19.099 4.258 o
1 1 15 1238.170 1270.650 20.994 4.344 o
1 1 16 0.157 6.898 9.597 237.512 o
1 1 17 10.194 8.217 9.570 238.227 o
1 1 18 158.032 147.350 11.645 106.263 o
1 1 19 15.724 9.843 11.399 167.668 o
1 1 20 83.605 89.488 12.385 125.064 o
1 1 21 195.851 177.086 12.224 85.692 o
1 1 22 6.348 0.826 9.922 222.103 o
1 1 23 4.267 10.972 22.048 44.999 o
1 1 24 12.688 14.227 16.842 77.000 o
1 3 0 4054.160 3971.440 81.366 0.402 o
1 3 1 205.496 255.871 15.039 58.858 o
1 3 2 1304.190 1357.320 37.060 3.355 o
1 3 3 235.693 255.810 13.097 63.489 o
1 3 4 4864.230 5320.120 144.937 0.230 o
1 3 5 1593.890 1641.790 30.104 2.562 o
1 3 6 19200.800 20616.600 293.111 0.018 o
1 3 7 30.401 21.006 6.819 449.428 o
1 3 8 117.757 118.314 8.017 207.870 o
1 3 9 134.209 139.201 9.849 144.525 o
1 3 10 16.063 23.605 9.258 252.265 o
1 3 11 8.003 14.877 9.721 230.753 o
1 3 12 2.414 -3.814 11.977 152.520 o
1 3 13 275.929 278.400 13.292 54.385 o
1 3 14 1032.330 1126.250 21.911 5.738 o
1 3 15 3198.980 3311.840 43.874 0.667 o
1 3 16 745.733 740.677 16.823 11.432 o
1 3 17 347.168 354.831 12.872 41.597 o
1 3 18 301.441 307.540 14.126 46.469 o
1 3 19 0.106 -4.352 11.098 177.633 o
1 3 20 171.635 175.834 12.262 91.713 o
1 3 21 22.002 18.621 11.748 157.071 o
1 3 22 177.716 179.092 15.330 66.600 o
1 3 23 61.952 85.937 13.138 116.996 o
1 5 0 480.125 535.888 17.633 20.965 o
1 5 1 3257.890 3209.510 47.892 0.658 o
1 5 2 959.863 908.704 22.214 7.031 o
1 5 3 42.721 44.162 13.407 118.115 o
1 5 4 434.914 451.671 16.657 25.768 o
1 5 5 121.728 118.614 19.313 52.607 o
1 5 6 4.958 14.882 21.269 48.345 o
1 5 7 67.979 68.942 12.290 132.774 o
1 5 8 18.965 35.004 19.138 59.456 o
1 5 9 38.058 22.112 17.495 70.751 o
1 5 10 54.283 33.120 26.875 30.021 o
1 5 11 62.608 45.012 13.072 121.309 o
1 5 12 16.515 25.166 13.655 116.648 o
1 5 13 169.548 172.766 15.635 66.261 o
1 5 14 75.595 95.578 14.814 91.394 o
1 5 15 91.701 101.691 22.817 39.984 o
1 5 16 64.897 74.847 14.035 103.842 o
1 5 17 178.483 196.480 23.525 33.472 o
1 5 18 108.104 122.680 10.651 144.857 o
1 5 19 33.788 35.872 15.858 85.806 o
1 5 20 4.304 -5.130 12.221 146.466 o
1 7 0 380.095 349.119 34.755 13.584 o
1 7 1 0.125 39.139 100.478 2.167 o
1 7 2 107.591 108.930 33.906 18.479 o
1 7 3 86.640 138.551 107.789 1.878 o
1 7 4 26.055 21.132 26.767 30.464 o
1 7 5 92.072 113.315 69.909 4.450 o
1 7 6 102.885 114.262 48.352 9.226 o
1 7 7 4.917 8.436 38.820 14.517 o
1 7 8 55.949 8.853 26.924 29.985 o
1 7 9 58.377 59.144 27.354 28.851 o
1 7 10 46.874 22.596 19.467 57.065 o
1 7 11 30.786 27.545 35.640 17.190 o
1 7 12 23.327 38.884 17.957 67.352 o
1 7 13 10.506 -5.221 18.060 67.049 o
1 7 14 39.732 -268.765 226.978 0.425 o
2 0 0 0.800 1.550 4.776 958.963 o
2 0 2 586.200 442.171 43.686 7.922 o
2 0 4 16.034 25.009 9.497 239.751 o
2 0 6 8332.440 7433.310 716.707 0.031 o
2 0 8 10286.000 10814.800 238.232 0.058 o
2 0 10 37161.100 37145.500 621.448 0.005 o
2 0 12 28.275 21.925 9.267 248.935 o
2 0 14 34.721 45.700 12.678 132.555 o
2 0 16 172.689 165.421 15.942 64.435 o
2 0 18 2.504 8.448 14.374 105.866 o
2 0 20 691.340 683.151 56.032 4.823 o
2 0 22 69.189 56.747 23.493 38.766 o
2 0 24 53.295 54.778 18.988 59.286 o
2 2 0 11.843 9.159 7.425 394.327 o
2 2 1 5112.490 4740.780 107.269 0.258 o
2 2 2 9263.410 8984.360 169.930 0.079 o
2 2 3 196.278 193.825 8.659 116.677 o
2 2 4 3186.960 3087.650 74.885 0.627 o
2 2 5 4116.110 4218.910 80.189 0.383 o
2 2 6 0.041 2.698 8.900 276.239 o
2 2 7 41.031 47.644 7.797 330.008 o
2 2 8 553.864 501.176 18.872 18.180 o
2 2 9 135.755 128.701 9.917 145.108 o
2 2 10 4.190 2.610 9.406 247.210 o
2 2 11 13.849 15.835 8.175 324.410 o
2 2 12 8.626 0.549 10.480 199.009 o
2 2 13 22.212 12.168 11.093 176.305 o
2 2 14 300.564 303.732 13.775 47.796 o
2 2 15 3225.640 3312.490 46.424 0.656 o
2 2 16 0.048 8.135 10.133 213.057 o
2 2 17 125.357 127.903 11.267 125.841 o
2 2 18 105.067 106.812 10.581 151.072 o
2 2 19 167.722 176.857 13.830 78.934 o
2 2 20 0.188 16.206 15.724 88.458 o
2 2 21 106.390 116.192 15.733 77.325 o
2 2 22 40.801 43.191 12.718 131.143 o
2 2 23 5.375 20.227 13.602 118.065 o
2 4 0 0.160 3.111 7.188 423.462 o
2 4 1 593.424 607.469 12.980 17.900 o
2 4 2 698.832 698.720 15.797 12.961 o
2 4 3 130.343 128.566 12.995 100.151 o
2 4 4 42.750 74.614 12.799 127.053 o
2 4 5 920.673 928.273 23.527 7.140 o
2 4 6 641.053 691.347 17.738 13.766 o
2 4 7 228.939 234.964 13.750 63.203 o
2 4 8 479.088 460.230 18.372 21.966 o
2 4 9 107.326 84.276 12.042 125.558 o
2 4 10 0.515 4.254 11.725 159.152 o
2 4 11 317.903 300.369 13.258 47.291 o
2 4 12 113.384 116.652 13.516 98.876 o
2 4 13 143.618 156.261 14.008 83.955 o
2 4 14 2174.070 2235.430 37.742 1.401 o
2 4 15 996.672 1074.340 23.812 5.999 o
2 4 16 60.685 45.013 13.792 109.788 o
2 4 17 115.275 104.313 16.295 72.392 o
2 4 18 59.487 76.844 17.089 71.832 o
2 4 19 17.390 0.741 16.824 77.189 o
2 4 20 81.042 114.555 16.791 71.271 o
2 4 21 45.947 31.983 15.430 89.997 o
2 6 0 2.724 32.291 33.113 19.946 o
2 6 1 4967.990 5240.800 104.178 0.254 o
2 6 2 504.227 542.457 21.078 17.765 o
2 6 3 26.696 31.311 18.729 61.959 o
2 6 4 73.664 83.279 24.936 34.228 o
2 6 5 1.086 6.053 19.393 58.171 o
2 6 6 373.857 326.373 23.173 23.922 o
2 6 7 24.767 18.523 14.279 106.525 o
2 6 8 232.225 206.913 29.487 21.513 o
2 6 9 64.685 53.673 17.425 69.544 o
2 6 10 983.756 868.207 58.109 3.641 o
2 6 11 12.994 24.545 17.099 74.624 o
2 6 12 1.587 17.308 45.808 10.426 o
2 6 13 0.901 -1.071 15.969 85.797 o
2 6 14 9.897 19.363 29.657 24.862 o
2 6 15 9.524 16.738 13.007 129.003 o
2 6 16 34.448 21.488 12.582 135.906 o
2 8 0 1.012 -102.937 106.100 1.944 o
2 8 1 22.710 73.726 99.357 2.215 o
2 8 2 68.079 4.898 79.076 3.495 o
2 8 3 13.506 57.287 59.015 6.278 o
2 8 4 0.004 44.859 100.322 2.174 o
2 8 5 20.206 37.627 50.973 8.414 o
2 8 6 30.937 -27.246 631.867 0.055 o
3 1 0 14427.900 14162.400 266.053 0.032 o
3 1 1 19306.900 18682.100 351.335 0.018 o
3 1 2 627.529 577.490 18.091 15.338 o
3 1 3 541.543 518.628 16.841 19.477 o
3 1 4 2614.980 2518.530 72.252 0.880 o
3 1 5 3058.560 2766.130 78.577 0.684 o
3 1 6 221.674 190.367 30.232 20.929 o
3 1 7 162.369 158.977 13.223 87.020 o
3 1 8 266.070 253.680 11.243 66.596 o
3 1 9 852.383 822.968 14.400 9.518 o
3 1 10 75.686 62.028 8.762 238.665 o
3 1 11 18.525 17.856 10.624 192.176 o
3 1 12 167.847 167.553 12.620 90.354 o
3 1 13 14.083 8.018 12.409 141.686 o
3 1 14 45.255 42.560 12.779 129.395 o
3 1 15 22.766 13.485 16.503 80.003 o
3 1 16 2.537 3.337 15.636 89.484 o
3 1 17 187.978 189.021 16.767 56.737 o
3 1 18 121.922 118.484 16.193 71.693 o
3 1 19 0.509 8.408 14.111 109.864 o
3 1 20 202.871 185.282 15.978 59.194 o
3 1 21 118.513 108.886 13.736 96.023 o
3 1 22 9.260 10.562 12.437 141.202 o
3 1 23 0.439 0.038 15.508 90.970 o
3 3 0 2292.490 2236.630 66.894 1.110 o
3 3 1 68.162 68.959 12.781 123.511 o
3 3 2 141.749 146.283 14.357 82.074 o
3 3 3 305.894 340.715 21.471 28.866 o
3 3 4 1261.760 1294.410 28.790 3.907 o
3 3 5 3728.510 3825.830 68.693 0.472 o
3 3 6 1202.780 1235.490 23.415 4.476 o
3 3 7 916.887 973.630 18.599 7.478 o
3 3 8 20.794 22.372 8.934 269.613 o
3 3 9 10.519 15.550 9.066 264.765 o
3 3 10 143.922 119.925 9.985 141.953 o
3 3 11 83.415 85.972 10.207 174.881 o
3 3 12 138.925 137.591 11.235 119.739 o
3 3 13 655.093 646.405 16.012 14.495 o
3 3 14 6537.520 6798.110 94.810 0.158 o
3 3 15 522.918 550.914 18.954 18.327 o
3 3 16 4835.960 5108.860 78.386 0.282 o
3 3 17 0.005 7.688 17.045 75.305 o
3 3 18 164.751 174.294 19.305 48.005 o
3 3 19 11.068 28.657 15.489 90.883 o
3 3 20 74.651 108.087 15.097 87.655 o
3 3 21 27.311 29.540 15.151 94.360 o
3 3 22 0.290 -16.415 14.695 101.322 o
3 5 0 7.500 2.766 11.823 156.397 o
3 5 1 498.285 503.612 15.497 22.399 o
3 5 2 171.777 158.452 13.165 85.528 o
3 5 3 299.666 306.622 12.793 50.610 o
3 5 4 3.546 6.948 14.140 109.388 o
3 5 5 144.951 177.549 19.221 49.617 o
3 5 6 13.505 18.627 18.576 63.283 o
3 5 7 215.390 217.604 15.669 57.110 o
3 5 8 47.390 57.039 26.166 31.610 o
3 5 9 223.863 204.956 26.425 26.117 o
3 5 10 385.490 344.072 37.414 12.109 o
3 5 11 557.792 507.979 56.292 5.427 o
3 5 12 239.890 226.642 22.227 33.283 o
3 5 13 21.900 38.987 14.910 97.436 o
3 5 14 78.881 84.337 15.109 88.416 o
3 5 15 32.782 36.976 15.043 95.237 o
3 5 16 18.559 20.672 16.787 77.341 o
3 5 17 15.411 -0.950 19.944 54.965 o
3 5 18 1.276 2.472 12.739 134.820 o
3 5 19 97.033 119.979 17.411 65.228 o
3 7 0 303.249 284.242 31.883 17.144 o
3 7 1 21.074 78.438 106.676 1.922 o
3 7 2 9.264 83.300 176.510 0.702 o
3 7 3 17.616 -20.376 56.659 6.815 o
3 7 4 16.925 29.595 41.288 12.825 o
3 7 5 16.981 -10.935 35.441 17.414 o
3 7 6 0.374 30.582 64.316 5.289 o
3 7 7 2.462 -9.369 30.156 24.059 o
3 7 8 43.626 321.039 189.006 0.612 o
3 7 9 29.786 36.861 49.810 8.808 o
3 7 10 108.286 63.621 23.948 36.513 o
3 7 11 9.804 59.576 282.852 0.273 o
3 7 12 10.558 20759.100 11702.000 0.000 o
4 0 0 308845.000 315800.000 6815.910 0.000 o
4 0 2 181.680 202.805 12.732 81.936 o
4 0 4 3636.840 3445.980 192.631 0.293 o
4 0 6 2495.940 1821.950 49.582 1.239 o
4 0 8 2914.180 2730.850 51.431 0.822 o
4 0 10 339.900 312.470 15.319 39.284 o
4 0 12 101.884 107.910 14.388 91.616 o
4 0 14 268.486 269.339 21.110 33.229 o
4 0 16 912.497 969.978 34.194 5.872 o
4 0 18 16.984 12.141 16.436 80.788 o
4 0 20 698.266 634.373 29.388 9.883 o
4 0 22 76.567 89.146 21.797 44.262 o
4 2 0 344.418 310.295 9.964 51.356 o
4 2 1 676.400 615.249 14.888 14.690 o
4 2 2 95.179 85.189 11.364 142.079 o
4 2 3 82.872 68.044 11.510 145.514 o
4 2 4 9.606 10.159 15.987 85.516 o
4 2 5 3456.390 3520.050 99.522 0.481 o
4 2 6 48.895 36.808 8.993 252.047 o
4 2 7 34.539 45.931 9.546 229.227 o
4 2 8 691.034 660.128 13.382 14.169 o
4 2 9 882.777 879.375 16.446 8.546 o
4 2 10 4.472 2.684 9.910 222.679 o
4 2 11 2.524 6.668 11.615 162.123 o
4 2 12 1045.960 1050.190 22.163 5.877 o
4 2 13 104.925 113.979 14.953 84.835 o
4 2 14 3.567 -5.222 14.469 104.504 o
4 2 15 1704.570 1726.520 30.668 2.285 o
4 2 16 422.688 420.018 15.592 28.518 o
4 2 17 264.712 270.419 14.881 50.782 o
4 2 18 216.620 222.042 16.099 54.736 o
4 2 19 2.956 6.467 14.153 109.194 o
4 2 20 24.924 28.548 15.395 91.540 o
4 2 21 6.187 3.185 12.010 151.595 o
4 2 22 1.094 7.299 10.815 187.023 o
4 4 0 43.797 41.331 7.804 329.811 o
4 4 1 598.666 586.456 13.254 17.976 o
4 4 2 24.815 21.631 9.321 247.122 o
4 4 3 610.655 606.662 20.524 14.442 o
4 4 4 629.300 666.178 18.079 14.212 o
4 4 5 301.419 326.271 14.197 45.195 o
4 4 6 82.741 96.785 10.856 155.871 o
4 4 7 135.045 137.981 14.657 81.237 o
4 4 8 274.437 264.573 17.807 40.998 o
4 4 9 59.140 37.960 21.593 46.137 o
4 4 10 72.678 71.223 21.084 47.577 o
4 4 11 2.560 11.210 14.972 97.566 o
4 4 12 104.565 90.288 15.981 76.837 o
4 4 13 6.054 17.231 15.416 91.958 o
4 4 14 168.526 169.562 17.345 56.849 o
4 4 15 59.317 75.791 19.857 53.800 o
4 4 16 113.488 121.075 22.624 39.673 o
4 4 17 58.715 58.714 16.356 78.794 o
4 4 18 38.176 59.237 17.859 67.330 o
4 4 19 0.949 -5.615 14.883 98.778 o
4 4 20 3.022 3.482 16.778 77.716 o
4 6 0 4344.860 4735.350 86.390 0.329 o
4 6 1 36.255 78.402 19.348 57.304 o
4 6 2 1.717 -1.203 13.823 114.505 o
4 6 3 9.711 8.186 14.678 101.440 o
4 6 4 199.784 179.143 50.669 8.173 o
4 6 5 3.200 -10.986 24.879 35.349 o
4 6 6 75.348 62.208 27.715 27.944 o
4 6 7 25.240 36.018 16.021 84.434 o
4 6 8 3.118 -3.840 52.117 8.055 o
4 6 9 1134.720 965.984 51.808 3.581 o
4 6 10 0.988 7.278 34.125 18.788 o
4 6 11 258.958 199.069 75.035 3.773 o
4 6 12 67.172 57.093 12.482 130.397 o
4 6 13 6.932 -0.945 12.227 146.281 o
4 6 14 51.916 24.587 32.579 20.510 o
4 6 15 0.083 -3.951 13.749 115.745 o
4 8 0 66.072 129.068 164.807 0.805 o
5 1 0 414.534 480.504 16.498 26.249 o
5 1 1 300.220 279.128 11.911 55.376 o
5 1 2 78.141 80.628 11.214 151.811 o
5 1 3 539.832 540.428 24.171 15.159 o
5 1 4 540.323 499.430 18.156 19.078 o
5 1 5 51.825 53.741 9.080 241.621 o
5 1 6 1418.910 1409.210 25.736 3.332 o
5 1 7 10.789 5.497 9.959 220.080 o
5 1 8 250.317 242.409 9.594 80.212 o
5 1 9 2073.240 2116.210 27.284 1.611 o
5 1 10 903.225 974.625 16.989 7.758 o
5 1 11 1199.450 1239.180 21.073 4.581 o
5 1 12 36.426 50.355 10.871 177.671 o
5 1 13 1.095 2.018 11.083 178.107 o
5 1 14 493.482 508.475 14.995 22.866 o
5 1 15 217.404 213.222 12.671 73.421 o
5 1 16 4.308 0.758 11.278 171.971 o
5 1 17 0.406 5.612 14.426 105.129 o
5 1 18 124.145 135.036 15.150 78.813 o
5 1 19 32.703 19.588 11.548 161.214 o
5 1 20 14.683 15.894 10.767 187.649 o
5 1 21 68.350 63.437 13.107 118.335 o
5 1 22 3.862 -2.791 13.425 121.381 o
5 3 0 1606.390 1560.850 29.990 2.618 o
5 3 1 47.892 39.410 7.064 391.491 o
5 3 2 49.950 50.731 8.609 268.335 o
5 3 3 467.048 460.679 16.109 24.411 o
5 3 4 4115.970 4576.500 82.282 0.362 o
5 3 5 470.160 457.247 14.538 25.720 o
5 3 6 6596.830 6787.640 94.701 0.157 o
5 3 7 18.908 17.196 9.069 262.851 o
5 3 8 242.106 267.833 12.686 63.225 o
5 3 9 29.786 37.142 12.492 137.518 o
5 3 10 0.859 5.450 12.663 136.440 o
5 3 11 0.123 -2.461 12.115 149.061 o
5 3 12 60.759 60.070 14.732 96.040 o
5 3 13 425.502 439.705 19.497 23.642 o
5 3 14 843.503 909.282 28.731 7.216 o
5 3 15 1530.490 1652.970 32.622 2.624 o
5 3 16 215.224 211.439 19.030 44.021 o
5 3 17 74.675 95.496 25.708 32.151 o
5 3 18 32.325 48.767 23.046 40.870 o
5 3 19 0.123 15.828 24.376 36.818 o
5 3 20 150.688 136.950 22.526 38.363 o
5 3 21 4.538 5.950 10.941 182.662 o
5 5 0 793.111 804.276 20.100 9.619 o
5 5 1 2028.700 2132.980 42.461 1.525 o
5 5 2 719.451 741.016 16.348 12.004 o
5 5 3 35.471 29.069 10.796 182.606 o
5 5 4 118.484 119.753 13.280 100.360 o
5 5 5 35.723 25.745 30.386 23.619 o
5 5 6 3.789 1.146 15.629 89.562 o
5 5 7 10.074 -3.075 21.342 48.022 o
5 5 8 4.621 4.661 15.651 89.293 o
5 5 9 12.079 8.717 15.592 89.870 o
5 5 10 1.352 -6.782 34.406 18.482 o
5 5 11 53.263 81.829 103.828 2.027 o
5 5 12 7.072 23.783 17.250 73.412 o
5 5 13 44.167 44.367 17.710 68.497 o
5 5 14 42.109 48.606 49.734 8.825 o
5 5 15 28.220 28.328 13.612 116.599 o
5 5 16 23.984 24.124 10.489 195.835 o
5 5 17 95.926 88.968 9.643 184.163 o
5 7 0 278.538 245.068 50.361 7.965 o
5 7 1 27.520 -0.962 60.562 5.964 o
5 7 2 53.558 -97.993 728.262 0.041 o
5 7 3 43.509 1983.710 436.481 0.114 o
5 7 4 0.157 7165.170 702.778 0.043 o
5 7 5 65.374 294.724 650.545 0.052 o
5 7 6 41.766 3571.720 456.173 0.103 o
5 7 7 0.398 12822.500 713.542 0.039 o
5 7 8 60.831 66.705 102.409 2.084 o
5 7 9 79.245 88.334 23.424 38.478 o
5 7 10 24.232 448.580 1172.410 0.016 o
6 0 0 1.178 -7.495 9.618 236.536 o
6 0 2 53.580 41.731 9.612 219.564 o
6 0 4 13.784 27.390 9.176 256.825 o
6 0 6 1487.130 1476.830 25.116 3.075 o
6 0 8 6230.370 6481.950 95.649 0.173 o
6 0 10 7156.320 7500.820 110.332 0.130 o
6 0 12 79.371 81.121 13.626 106.988 o
6 0 14 19.060 26.178 14.582 102.248 o
6 0 16 50.227 53.885 14.603 98.987 o
6 0 18 93.705 83.565 18.055 62.511 o
6 0 20 269.645 293.826 19.496 36.029 o
6 2 0 27.068 27.471 8.310 307.143 o
6 2 1 575.054 531.595 42.866 7.918 o
6 2 2 2560.010 2539.440 32.922 1.078 o
6 2 3 10.896 9.310 10.777 187.866 o
6 2 4 311.491 274.788 14.699 45.594 o
6 2 5 931.692 962.783 23.592 6.900 o
6 2 6 345.042 329.054 16.837 35.094 o
6 2 7 52.713 44.018 14.289 103.451 o
6 2 8 88.827 99.929 13.344 107.633 o
6 2 9 33.954 20.834 12.459 138.655 o
6 2 10 1.718 0.934 11.969 152.728 o
6 2 11 10.688 7.298 13.585 118.383 o
6 2 12 0.105 14.038 13.964 112.167 o
6 2 13 21.119 19.363 15.542 90.117 o
6 2 14 202.084 229.376 16.911 52.424 o
6 2 15 1395.130 1525.590 30.492 3.114 o
6 2 16 7.141 10.862 15.538 90.549 o
6 2 17 34.688 27.837 13.186 123.634 o
6 2 18 39.923 36.014 12.914 127.837 o
6 2 19 55.889 48.325 13.789 110.209 o
6 2 20 17.698 13.984 9.905 221.194 o
6 2 21 41.963 31.630 13.708 113.796 o
6 4 0 5.676 7.984 11.547 163.952 o
6 4 1 60.562 55.678 12.165 138.290 o
6 4 2 258.826 255.155 14.895 52.425 o
6 4 3 25.641 22.956 10.441 197.454 o
6 4 4 30.987 33.296 10.230 203.305 o
6 4 5 206.018 212.095 12.373 77.974 o
6 4 6 69.127 72.633 11.046 160.217 o
6 4 7 42.867 36.040 10.462 191.421 o
6 4 8 163.428 163.689 17.461 57.031 o
6 4 9 8.574 20.061 21.705 46.398 o
6 4 10 56.131 58.945 17.757 67.340 o
6 4 11 139.483 139.294 122.968 1.442 o
6 4 12 5.233 -3.024 18.203 66.028 o
6 4 13 6.328 11.867 19.731 56.174 o
6 4 14 1103.820 1098.720 72.494 2.477 o
6 4 15 807.521 884.596 30.534 7.348 o
6 4 16 35.229 29.103 11.759 154.593 o
6 4 17 72.972 67.395 11.428 150.365 o
6 4 18 12.771 10.612 9.589 236.870 o
6 6 0 12.296 19.107 16.555 79.653 o
6 6 1 1596.400 1607.230 47.898 2.224 o
6 6 2 181.732 189.150 30.707 20.980 o
6 6 3 4.287 55.653 853.147 0.030 o
6 6 4 99.532 74.862 22.793 40.214 o
6 6 5 0.006 3.596 95.609 2.394 o
6 6 6 110.431 100.762 22.657 39.986 o
6 6 7 11.204 3.021 122.036 1.469 o
6 6 8 238.453 217.397 15.954 53.065 o
6 6 9 27.689 36.867 13.170 124.146 o
6 6 10 332.843 279.665 16.234 39.347 o
6 6 11 1.963 10.476 11.784 157.475 o
6 6 12 1.080 3.259 10.876 184.954 o
6 6 13 1.714 -6.165 13.580 118.646 o
7 1 0 5434.860 5567.780 65.586 0.236 o
7 1 1 4949.030 4987.570 61.932 0.287 o
7 1 2 103.421 102.289 8.535 210.132 o
7 1 3 102.900 113.674 7.771 233.262 o
7 1 4 560.485 533.258 11.393 21.335 o
7 1 5 491.536 503.295 13.259 24.339 o
7 1 6 53.990 60.102 8.935 245.603 o
7 1 7 8.043 12.633 8.139 328.988 o
7 1 8 234.920 234.710 10.332 81.268 o
7 1 9 188.434 177.177 10.047 108.629 o
7 1 10 37.386 39.077 8.862 264.296 o
7 1 11 4.249 6.894 9.446 245.002 o
7 1 12 17.884 10.748 10.827 185.523 o
7 1 13 0.220 4.855 10.874 185.031 o
7 1 14 5.389 7.504 10.962 181.906 o
7 1 15 18.106 10.531 10.623 192.647 o
7 1 16 0.144 -10.893 10.638 193.341 o
7 1 17 18.192 22.645 12.372 141.891 o
7 1 18 52.206 46.625 13.333 118.116 o
7 1 19 13.232 14.386 10.963 181.222 o
7 1 20 64.037 60.425 12.739 125.807 o
7 1 21 57.512 59.831 31.340 22.051 o
7 3 0 335.367 320.675 12.352 46.130 o
7 3 1 47.054 52.370 7.974 309.863 o
7 3 2 8.020 54.678 139.768 1.120 o
7 3 3 404.959 407.773 11.429 35.520 o
7 3 4 406.026 405.481 12.562 34.026 o
7 3 5 1193.860 1287.180 27.447 4.229 o
7 3 6 139.786 147.583 11.782 110.200 o
7 3 7 150.407 142.110 11.932 105.909 o
7 3 8 0.299 2.035 10.518 197.751 o
7 3 9 2.239 2.311 11.774 157.809 o
7 3 10 3.171 -3.636 11.224 173.660 o
7 3 11 0.032 1.501 14.380 105.806 o
7 3 12 91.734 111.424 14.377 93.037 o
7 3 13 363.188 368.763 18.107 30.369 o
7 3 14 3062.260 3254.330 63.330 0.667 o
7 3 15 171.395 192.957 14.366 72.851 o
7 3 16 1077.150 1098.990 35.495 4.631 o
7 3 17 0.220 3.371 13.484 120.327 o
7 3 18 50.527 37.417 9.346 233.710 o
7 3 19 0.003 1.504 10.738 189.766 o
7 5 0 69.653 70.001 12.800 122.794 o
7 5 1 221.516 210.764 14.052 64.853 o
7 5 2 57.338 65.566 11.845 144.960 o
7 5 3 72.351 74.955 13.232 114.627 o
7 5 4 0.005 288.488 670.558 0.049 o
7 5 5 59.957 65.556 13.367 115.198 o
7 5 6 0.685 -2.980 12.943 130.604 o
7 5 7 26.776 28.112 12.483 138.466 o
7 5 8 50.764 40.751 15.067 93.648 o
7 5 9 208.956 225.528 26.639 25.889 o
7 5 10 205.086 228.586 25.581 27.768 o
7 5 11 239.553 221.280 15.243 55.686 o
7 5 12 95.486 88.805 11.892 130.987 o
7 5 13 19.696 7.521 11.322 169.727 o
7 5 14 8.773 19.004 10.702 190.321 o
7 5 15 11.015 13.794 8.877 276.158 o
7 7 0 149.099 208.754 299.630 0.243 o
7 7 1 37.799 26.592 52.867 7.819 o
7 7 2 6.248 24.059 52.867 7.827 o
7 7 3 1.680 -10.447 52.550 7.923 o
7 7 4 8.581 -45.269 52.550 7.923 o
7 7 5 0.380 -30.074 50.018 8.746 o
7 7 6 2.614 -12.346 48.118 9.450 o
8 0 0 36693.700 38622.200 1025.330 0.004 o
8 0 2 145.477 134.939 13.439 91.168 o
8 0 4 532.245 540.490 20.760 17.172 o
8 0 6 292.705 324.405 14.259 46.134 o
8 0 8 428.494 420.552 16.334 27.314 o
8 0 10 9.483 7.167 14.757 100.375 o
8 0 12 1.142 8.777 14.842 99.305 o
8 0 14 86.260 58.211 15.398 85.961 o
8 0 16 160.428 155.041 20.852 42.990 o
8 0 18 27.409 15.035 24.376 36.725 o
8 0 20 239.856 281.872 23.715 29.085 o
8 2 0 26.525 33.147 9.481 237.000 o
8 2 1 85.076 92.737 8.626 225.476 o
8 2 2 12.226 17.194 8.018 337.392 o
8 2 3 73.657 73.195 9.258 215.313 o
8 2 4 5.509 9.137 9.186 258.902 o
8 2 5 856.262 908.891 19.511 8.319 o
8 2 6 5.161 -2.767 9.870 224.501 o
8 2 7 6.965 11.319 10.862 185.117 o
8 2 8 111.439 90.169 13.338 104.200 o
8 2 9 78.770 88.781 12.674 121.218 o
8 2 10 7.900 12.305 14.489 104.102 o
8 2 11 13.240 25.608 13.875 113.125 o
8 2 12 180.298 189.642 13.938 74.581 o
8 2 13 181.986 178.982 12.332 88.021 o
8 2 14 57.667 71.335 15.058 91.871 o
8 2 15 603.432 652.651 21.784 13.621 o
8 2 16 269.096 290.684 13.838 52.547 o
8 2 17 85.954 83.222 11.021 153.260 o
8 2 18 54.088 47.452 12.017 143.634 o
8 2 19 1.186 -3.235 13.545 119.249 o
8 4 0 9.644 1.382 15.423 91.928 o
8 4 1 107.318 116.806 12.320 116.536 o
8 4 2 10.140 0.611 11.234 173.170 o
8 4 3 23.979 24.233 11.621 159.986 o
8 4 4 284.035 294.616 15.918 44.023 o
8 4 5 285.086 305.330 15.536 44.446 o
8 4 6 22.304 19.192 10.322 202.825 o
8 4 7 24.716 24.553 10.068 212.100 o
8 4 8 43.479 41.950 10.656 183.869 o
8 4 9 9.918 14.669 10.533 196.507 o
8 4 10 22.312 23.020 11.254 170.729 o
8 4 11 7.772 7.027 11.571 163.209 o
8 4 12 31.709 22.756 11.304 168.032 o
8 4 13 0.703 2.475 9.073 265.769 o
8 4 14 56.909 53.221 10.123 196.048 o
8 4 15 6.769 14.208 9.124 262.008 o
8 4 16 13.693 15.209 8.038 335.537 o
8 6 0 1217.860 1201.500 36.979 3.840 o
8 6 1 0.529 13.571 25.484 33.688 o
8 6 2 13.870 26.303 54.924 7.251 o
8 6 3 1.118 -14.879 60.464 5.985 o
8 6 4 60.801 70.911 59.831 6.091 o
8 6 5 2.116 38.621 58.565 6.378 o
8 6 6 29.413 46.164 31.715 21.675 o
8 6 7 51.696 34.655 15.274 91.343 o
8 6 8 0.004 5.815 11.015 180.303 o
8 6 9 364.867 300.070 18.148 32.343 o
8 6 10 2.707 -3.253 13.071 128.060 o
9 1 0 7.363 10.401 10.319 205.083 o
9 1 1 11.128 19.405 10.225 208.140 o
9 1 2 12.150 27.278 10.505 196.713 o
9 1 3 18.179 17.339 9.545 237.677 o
9 1 4 0.310 -0.959 10.126 213.385 o
9 1 5 6.815 8.795 12.124 148.679 o
9 1 6 154.630 156.816 14.141 80.718 o
9 1 7 6.106 9.948 11.322 170.456 o
9 1 8 213.279 227.291 13.121 70.104 o
9 1 9 607.192 642.960 20.088 14.275 o
9 1 10 354.412 361.409 15.943 34.780 o
9 1 11 298.224 310.027 15.383 43.276 o
9 1 12 18.140 17.661 12.143 147.441 o
9 1 13 0.791 5.462 11.371 169.191 o
9 1 14 107.580 109.877 15.541 79.239 o
9 1 15 0.976 9.827 13.166 126.191 o
9 1 16 5.474 -3.662 13.020 129.031 o
9 1 17 0.398 -0.400 10.738 189.771 o
9 1 18 31.416 41.308 22.496 42.934 o
9 3 0 281.374 312.234 11.689 56.503 o
9 3 1 0.602 1.872 10.234 208.887 o
9 3 2 101.328 115.191 11.567 131.130 o
9 3 3 158.833 158.153 12.012 100.183 o
9 3 4 1535.180 1648.740 34.203 2.586 o
9 3 5 62.264 60.673 10.025 195.842 o
9 3 6 857.807 876.341 17.460 8.738 o
9 3 7 4.467 7.538 9.270 254.327 o
9 3 8 79.919 73.239 9.615 198.482 o
9 3 9 2.841 5.114 9.753 229.907 o
9 3 10 0.004 1.344 9.710 232.043 o
9 3 11 4.264 10.281 8.855 278.655 o
9 3 12 93.405 81.237 11.136 148.299 o
9 3 13 243.170 237.525 12.968 64.412 o
9 3 14 307.127 288.053 13.054 50.078 o
9 3 15 383.488 358.879 20.662 25.991 o
9 3 16 28.878 26.020 8.325 305.532 o
9 5 0 465.505 441.658 22.694 19.332 o
9 5 1 665.342 667.920 25.667 11.127 o
9 5 2 247.984 256.983 18.734 40.779 o
9 5 3 14.911 -0.319 14.959 97.654 o
9 5 4 5.463 -1.020 15.751 88.176 o
9 5 5 1.100 -3.120 12.142 148.405 o
9 5 6 7.187 6.782 11.642 161.261 o
9 5 7 0.643 -6.626 11.770 157.937 o
9 5 8 0.153 -0.184 9.303 252.836 o
9 5 9 10.107 -2.472 10.090 214.635 o
9 5 10 0.000 -4.007 9.971 220.066 o
9 5 11 27.186 27.440 9.682 228.069 o
9 5 12 1.263 6.625 10.373 203.302 o
10 0 0 17.185 12.298 13.779 114.813 o
10 0 2 2.118 -1.803 17.885 68.397 o
10 0 4 33.124 20.424 19.726 55.876 o
10 0 6 30.453 51.210 20.611 51.009 o
10 0 8 1310.410 1342.830 37.761 3.331 o
10 0 10 868.872 856.859 29.702 7.091 o
10 0 12 13.134 23.335 16.523 79.909 o
10 0 14 4.117 -13.221 28.535 26.871 o
10 0 16 21.152 18.225 24.716 35.746 o
10 2 0 0.128 -2.161 10.043 216.938 o
10 2 1 5.108 2.607 10.184 210.863 o
10 2 2 270.158 279.347 14.521 50.790 o
10 2 3 14.566 12.668 10.482 198.086 o
10 2 4 0.001 3.132 11.727 159.094 o
10 2 5 145.723 160.415 13.292 89.852 o
10 2 6 140.476 155.688 10.851 121.453 o
10 2 7 13.403 10.985 9.860 223.970 o
10 2 8 11.489 10.490 9.665 233.305 o
10 2 9 1.543 11.121 10.284 206.765 o
10 2 10 3.765 -1.599 11.311 170.990 o
10 2 11 4.124 3.641 9.770 229.119 o
10 2 12 8.197 -1.003 9.059 266.338 o
10 2 13 54.957 50.238 8.726 258.813 o
10 2 14 100.600 97.528 9.999 169.371 o
10 2 15 341.901 357.028 13.889 39.962 o
10 2 16 6.119 13.092 14.129 109.492 o
10 4 0 13.174 28.726 16.376 81.288 o
10 4 1 0.818 -0.051 12.718 135.260 o
10 4 2 34.747 32.276 12.960 127.679 o
10 4 3 9.279 18.420 13.817 114.332 o
10 4 4 22.392 21.851 14.244 107.069 o
10 4 5 9.424 26.478 11.888 154.083 o
10 4 6 0.615 5.994 11.131 176.579 o
10 4 7 0.901 10.098 11.227 173.509 o
10 4 8 8.568 12.976 12.197 146.775 o
10 4 9 0.355 2.652 12.041 150.892 o
10 4 10 50.093 41.974 11.624 154.364 o
10 4 11 12.975 10.674 9.325 250.365 o
10 4 12 12.059 15.223 8.599 293.874 o
10 4 13 77.808 78.417 11.469 146.376 o
10 6 0 9.969 -11.959 16.733 78.112 o
10 6 1 290.566 266.182 21.175 32.017 o
10 6 2 23.108 76.609 50.334 8.619 o
10 6 3 7.806 -3.799 49.384 8.971 o
10 6 4 42.410 -10.130 47.169 9.824 o
10 6 5 0.010 -24.692 45.586 10.529 o
11 1 0 1331.250 1308.660 34.856 3.431 o
11 1 1 798.255 783.558 22.705 9.233 o
11 1 2 23.866 22.491 12.459 139.506 o
11 1 3 9.910 20.239 13.625 117.527 o
11 1 4 61.807 66.409 16.546 76.613 o
11 1 5 18.402 28.357 15.990 85.107 o
11 1 6 11.914 34.497 16.570 79.369 o
11 1 7 1.262 4.293 15.142 95.424 o
11 1 8 52.473 44.832 15.641 86.828 o
11 1 9 39.666 30.276 15.550 89.042 o
11 1 10 5.993 3.033 13.388 122.026 o
11 1 11 10.427 0.424 13.668 117.026 o
11 1 12 0.037 -0.688 12.224 146.418 o
11 1 13 0.221 10.169 10.862 185.390 o
11 1 14 3.587 2.197 10.828 186.562 o
11 1 15 10.206 18.352 16.812 77.277 o
11 3 0 21.472 24.213 11.710 157.858 o
11 3 1 19.332 19.701 13.224 124.330 o
11 3 2 18.755 53.298 17.947 67.363 o
11 3 3 190.525 221.891 21.157 38.614 o
11 3 4 49.740 55.272 11.840 147.815 o
11 3 5 220.342 234.906 13.834 64.205 o
11 3 6 8.416 -0.412 11.953 153.032 o
11 3 7 9.238 17.097 10.315 204.835 o
11 3 8 1.338 6.467 9.041 267.571 o
11 3 9 0.094 8.996 7.931 347.686 o
11 3 10 0.285 1.778 8.260 320.697 o
11 3 11 9.557 5.278 8.225 322.454 o
11 3 12 178.410 153.137 14.516 73.959 o
11 3 13 118.867 96.617 11.549 128.717 o
11 5 0 51.606 46.630 13.373 117.519 o
11 5 1 67.326 46.638 14.647 97.115 o
11 5 2 8.696 11.850 13.388 121.880 o
11 5 3 11.671 12.951 13.164 125.940 o
11 5 4 0.089 0.956 14.775 100.222 o
11 5 5 4.184 15.718 11.839 155.887 o
11 5 6 0.026 5.142 11.203 174.307 o
11 5 7 0.291 4.528 12.661 136.479 o
12 0 0 3606.810 3765.360 89.239 0.461 o
12 0 2 50.334 48.856 15.032 93.796 o
12 0 4 58.619 42.485 15.248 90.845 o
12 0 6 11.670 28.304 31.543 21.971 o
12 0 8 83.083 72.400 30.389 23.223 o
12 0 10 4.570 7.714 22.151 44.584 o
12 0 12 2.105 -1.907 22.761 42.234 o
12 2 0 0.905 6.263 10.778 188.319 o
12 2 1 7.051 10.028 10.348 203.951 o
12 2 2 3.006 4.652 9.614 236.599 o
12 2 3 52.830 64.776 10.364 187.144 o
12 2 4 31.197 30.584 12.176 144.813 o
12 2 5 121.667 121.510 14.337 87.825 o
12 2 6 13.946 17.246 12.503 139.369 o
12 2 7 2.751 13.228 10.041 216.774 o
12 2 8 14.964 13.427 9.824 225.251 o
12 2 9 0.257 -0.342 9.125 262.764 o
12 2 10 0.209 1.541 8.551 299.222 o
12 2 11 2.910 3.438 7.440 395.081 o
12 2 12 6.309 6.934 11.680 160.228 o
12 4 0 23.730 30.182 14.108 108.840 o
12 4 1 0.728 15.483 15.289 93.568 o
12 4 2 0.042 7.524 17.499 71.449 o
12 4 3 13.256 7.875 19.603 56.878 o
12 4 4 97.213 96.637 14.762 89.073 o
12 4 5 77.609 62.015 13.790 106.420 o
12 4 6 6.900 -9.255 16.931 76.310 o
12 4 7 2.492 -1.769 16.021 85.239 o
12 4 8 5.497 -0.006 14.412 105.322 o
13 1 0 1.026 1.094 8.135 330.598 o
13 1 1 2.175 6.165 8.025 339.592 o
13 1 2 0.162 4.002 9.126 262.694 o
13 1 3 5.848 9.049 8.834 279.838 o
13 1 4 3.685 6.482 8.604 295.298 o
13 1 5 7.374 -3.336 8.424 308.033 o
13 1 6 2.640 -0.514 9.439 245.558 o
13 1 7 5.780 11.175 10.033 216.975 o
13 1 8 90.966 82.089 14.713 91.431 o
13 1 9 128.444 100.656 15.861 74.566 o
13 1 10 76.091 47.334 8.995 232.903 o
13 1 11 57.265 11.360 18.361 63.917 o
13 3 0 39.275 21.360 17.391 71.571 o
13 3 1 5.839 20.013 14.850 99.068 o
13 3 2 112.210 102.548 12.410 115.760 o
13 3 3 31.635 35.478 11.450 162.914 o
13 3 4 323.787 335.706 15.855 38.530 o
13 3 5 5.878 13.438 10.529 196.994 o
13 3 6 53.329 48.370 10.025 201.898 o
13 3 7 0.466 2.966 11.414 167.931 o
13 3 8 13.738 7.788 10.006 217.659 o
14 0 0 17.201 17.035 11.450 165.782 o
14 0 2 0.782 9.499 10.915 183.583 o
14 0 4 7.176 8.769 10.476 199.027 o
14 0 6 5.457 2.461 9.749 230.044 o
14 0 8 193.472 187.135 16.551 57.303 o
14 2 0 5.603 -2.824 10.007 218.404 o
14 2 1 3.208 -0.234 12.740 134.792 o
14 2 2 9.793 6.486 8.582 296.180 o
14 2 3 17.524 10.694 8.469 302.143 o
14 2 4 5.783 0.582 7.937 347.036 o
14 2 5 20.334 13.481 7.619 370.820 o
14 2 6 28.197 21.443 11.582 160.734 o
15 1 0 255.930 228.669 14.445 56.367 o
15 1 1 113.145 102.380 17.039 67.182 o
15 1 2 6.069 23.630 15.052 96.395 o
15 1 3 3.583 5.510 10.702 190.960 o
;
_iucr_refine_instructions_details
;
TITL dk3_a.res in C2/c
REM Old TITL DK3 in C2/c #15
REM SHELXT solution in C2/c
REM R1 0.197, Rweak 0.039, Alpha 0.049, Orientation as input
REM Formula found by SHELXT: C11 N O4
CELL 1.54184 12.8983 7.0522 21.0455 90 96.34 90
ZERR 8 0.0016 0.0007 0.0022 0 0.01 0
LATT 7
SYMM -X,+Y,0.5-Z
SFAC C H N O
UNIT 88 80 8 8

L.S. 10
PLAN  20
BOND $H
FMAP 2
list 4
ACTA 
EXTI 0
WGHT 0.054277 0
FVAR 0.177733
REM <olex2.extras>
REM <HklSrc "%.\\DK3.hkl">
REM </olex2.extras>

O001  4     0.37946  0.19193  0.48921  11.00000  0.06011  0.03469  0.03244 =
 -0.00047  0.00712 -0.00144 
O002  4     0.37044  0.17076  0.36450  11.00000  0.08472  0.03964  0.03368 =
 -0.00406  0.01460 -0.00511 
O003  4     0.39308  0.03179  0.57897  11.00000  0.07620  0.04704  0.04423 =
 0.00863  0.00691 -0.00169 
O004  4     0.39022  0.20356  0.68872  11.00000  0.10659  0.07841  0.03909 =
 0.00779  0.00629 -0.00619 
AFIX 147
H004  2     0.39115  0.11853  0.66221  11.00000 -1.50000 
AFIX 0
O005  4     0.37844  0.51459  0.68846  11.00000  0.10516  0.08277  0.04295 =
 -0.02034  0.01317 -0.00720 
C006  1     0.36625  0.34802  0.38901  11.00000  0.04812  0.03585  0.03670 =
 -0.00211  0.00827 -0.00349 
C007  1     0.36799  0.53348  0.48679  11.00000  0.04090  0.03477  0.04124 =
 -0.00383  0.00576 -0.00111 
C008  1     0.38537  0.18797  0.55442  11.00000  0.04464  0.04665  0.03267 =
 0.00159  0.00425 -0.00440 
C009  1     0.38057  0.36619  0.58770  11.00000  0.04396  0.04782  0.03455 =
 -0.00485  0.00560 -0.00290 
C00A  1     0.37136  0.36085  0.45565  11.00000  0.04066  0.03294  0.03677 =
 0.00242  0.00673 -0.00235 
C00B  1     0.37322  0.53032  0.55517  11.00000  0.04315  0.04724  0.04320 =
 -0.01238  0.00698 -0.00200 
AFIX 43
H00B  2     0.37149  0.64402  0.57742  11.00000 -1.20000 
AFIX 0
C00C  1     0.35895  0.70033  0.45051  11.00000  0.05535  0.03421  0.05661 =
 -0.00334  0.00974  0.00247 
AFIX 43
H00C  2     0.35719  0.81785  0.47042  11.00000 -1.20000 
AFIX 0
C00D  1     0.38343  0.36941  0.65928  11.00000  0.05818  0.06970  0.03784 =
 -0.00564  0.00610 -0.00748 
C00E  1     0.35649  0.51428  0.35438  11.00000  0.05770  0.04585  0.03744 =
 0.00541  0.00632 -0.00279 
AFIX 43
H00E  2     0.35239  0.51016  0.31001  11.00000 -1.20000 
AFIX 0
C00F  1     0.35272  0.68768  0.38521  11.00000  0.06410  0.04047  0.05413 =
 0.01179  0.00928  0.00248 
AFIX 43
H00F  2     0.34580  0.79810  0.36095  11.00000 -1.20000 
AFIX 0
C00G  1     0.38202  0.15921  0.29754  11.00000  0.12924  0.05888  0.03822 =
 -0.00925  0.03357 -0.00864 
AFIX 137
H00a  2     0.32046  0.20812  0.27322  11.00000 -1.50000 
H00d  2     0.44143  0.23251  0.28861  11.00000 -1.50000 
H00g  2     0.39190  0.02927  0.28601  11.00000 -1.50000 
AFIX 0
HKLF 4

END
Q1 1 0.5 0.416667 0.25 11 0.05 0.69
Q2 1 0.4 0.708333 0.609375 11 0.05 0.66
Q3 1 0.35 1 0.453125 11 0.05 0.66
Q4 1 0.25 0.791667 0.4375 11 0.05 0.65
Q5 1 0.3 0.875 0.46875 11 0.05 0.64
Q6 1 0.35 0.291667 0.453125 11 0.05 0.64
Q7 1 0.5 0.5 0.375 11 0.05 0.63
Q8 1 0.45 0.916667 0.46875 11 0.05 0.63
Q9 1 0.325 0.583333 0.46875 11 0.05 0.63
Q10 1 0.4 0.416667 0.609375 11 0.05 0.62

  REM The information below was added by Olex2.
  REM
  REM R1 = 0.0468 for 1034 Fo > 4sig(Fo) and 0.0902 for all 1732 data
  REM 148 parameters refined using 0 restraints
  REM Highest difference peak 0.6888, deepest hole -0.6998
  REM Mean Shift 0.0014, Max Shift 0.2000.

  REM +++ Tabular Listing of Refinement Information +++
  REM R1_all = 0.0902
  REM R1_gt = 0.0468
  REM wR_ref = 0.1112
  REM GOOF = 1.0280
  REM Shift_max = 0.2000
  REM Shift_mean = 0.0014
  REM Reflections_all = 1732
  REM Reflections_gt = 1034
  REM Parameters = 148
  REM Hole = -0.6998
  REM Peak = 0.6888
  REM Flack = n/a

  
;
_olex2_submission_special_instructions  'No special instructions were received'
_oxdiff_exptl_absorpt_empirical_details
;
Empirical correction (ABSPACK) includes:
- Absorption correction using spherical harmonics
- Frame scaling
;
_oxdiff_exptl_absorpt_empirical_full_max  1.742
_oxdiff_exptl_absorpt_empirical_full_min  0.233
